# generated using pymatgen
data_TaNi3
_symmetry_space_group_name_H-M   'P 1'
_cell_length_a   20.52211545
_cell_length_b   33.87750986
_cell_length_c   43.16196770
_cell_angle_alpha   52.15727701
_cell_angle_beta   97.15674291
_cell_angle_gamma   64.00452759
_symmetry_Int_Tables_number   1
_chemical_formula_structural   TaNi3
_chemical_formula_sum   'Ta144 Ni432'
_cell_volume   17727.35369889
_cell_formula_units_Z   144
loop_
 _symmetry_equiv_pos_site_id
 _symmetry_equiv_pos_as_xyz
  1  'x, y, z'
loop_
 _atom_site_type_symbol
 _atom_site_label
 _atom_site_symmetry_multiplicity
 _atom_site_fract_x
 _atom_site_fract_y
 _atom_site_fract_z
 _atom_site_occupancy
  Ta  Ta0  1  0.08333333  0.22697417  0.13944630  1.0
  Ta  Ta1  1  0.08333333  0.56030750  0.13944630  1.0
  Ta  Ta2  1  0.08333333  0.89364083  0.13944630  1.0
  Ta  Ta3  1  0.41666667  0.22697417  0.13944630  1.0
  Ta  Ta4  1  0.41666667  0.56030750  0.13944630  1.0
  Ta  Ta5  1  0.41666667  0.89364083  0.13944630  1.0
  Ta  Ta6  1  0.75000000  0.22697417  0.13944630  1.0
  Ta  Ta7  1  0.75000000  0.56030750  0.13944630  1.0
  Ta  Ta8  1  0.75000000  0.89364083  0.13944630  1.0
  Ta  Ta9  1  0.08333333  0.06030750  0.03944630  1.0
  Ta  Ta10  1  0.08333333  0.39364083  0.03944630  1.0
  Ta  Ta11  1  0.08333333  0.72697417  0.03944630  1.0
  Ta  Ta12  1  0.41666667  0.06030750  0.03944630  1.0
  Ta  Ta13  1  0.41666667  0.39364083  0.03944630  1.0
  Ta  Ta14  1  0.41666667  0.72697417  0.03944630  1.0
  Ta  Ta15  1  0.75000000  0.06030750  0.03944630  1.0
  Ta  Ta16  1  0.75000000  0.39364083  0.03944630  1.0
  Ta  Ta17  1  0.75000000  0.72697417  0.03944630  1.0
  Ta  Ta18  1  0.25000000  0.10635917  0.06055370  1.0
  Ta  Ta19  1  0.25000000  0.43969250  0.06055370  1.0
  Ta  Ta20  1  0.25000000  0.77302583  0.06055370  1.0
  Ta  Ta21  1  0.58333333  0.10635917  0.06055370  1.0
  Ta  Ta22  1  0.58333333  0.43969250  0.06055370  1.0
  Ta  Ta23  1  0.58333333  0.77302583  0.06055370  1.0
  Ta  Ta24  1  0.91666667  0.10635917  0.06055370  1.0
  Ta  Ta25  1  0.91666667  0.43969250  0.06055370  1.0
  Ta  Ta26  1  0.91666667  0.77302583  0.06055370  1.0
  Ta  Ta27  1  0.25000000  0.27302583  0.16055370  1.0
  Ta  Ta28  1  0.25000000  0.60635917  0.16055370  1.0
  Ta  Ta29  1  0.25000000  0.93969250  0.16055370  1.0
  Ta  Ta30  1  0.58333333  0.27302583  0.16055370  1.0
  Ta  Ta31  1  0.58333333  0.60635917  0.16055370  1.0
  Ta  Ta32  1  0.58333333  0.93969250  0.16055370  1.0
  Ta  Ta33  1  0.91666667  0.27302583  0.16055370  1.0
  Ta  Ta34  1  0.91666667  0.60635917  0.16055370  1.0
  Ta  Ta35  1  0.91666667  0.93969250  0.16055370  1.0
  Ta  Ta36  1  0.08333333  0.25671400  0.02045180  1.0
  Ta  Ta37  1  0.08333333  0.59004733  0.02045180  1.0
  Ta  Ta38  1  0.08333333  0.92338067  0.02045180  1.0
  Ta  Ta39  1  0.41666667  0.25671400  0.02045180  1.0
  Ta  Ta40  1  0.41666667  0.59004733  0.02045180  1.0
  Ta  Ta41  1  0.41666667  0.92338067  0.02045180  1.0
  Ta  Ta42  1  0.75000000  0.25671400  0.02045180  1.0
  Ta  Ta43  1  0.75000000  0.59004733  0.02045180  1.0
  Ta  Ta44  1  0.75000000  0.92338067  0.02045180  1.0
  Ta  Ta45  1  0.08333333  0.09004733  0.12045180  1.0
  Ta  Ta46  1  0.08333333  0.42338067  0.12045180  1.0
  Ta  Ta47  1  0.08333333  0.75671400  0.12045180  1.0
  Ta  Ta48  1  0.41666667  0.09004733  0.12045180  1.0
  Ta  Ta49  1  0.41666667  0.42338067  0.12045180  1.0
  Ta  Ta50  1  0.41666667  0.75671400  0.12045180  1.0
  Ta  Ta51  1  0.75000000  0.09004733  0.12045180  1.0
  Ta  Ta52  1  0.75000000  0.42338067  0.12045180  1.0
  Ta  Ta53  1  0.75000000  0.75671400  0.12045180  1.0
  Ta  Ta54  1  0.25000000  0.07661933  0.17954820  1.0
  Ta  Ta55  1  0.25000000  0.40995267  0.17954820  1.0
  Ta  Ta56  1  0.25000000  0.74328600  0.17954820  1.0
  Ta  Ta57  1  0.58333333  0.07661933  0.17954820  1.0
  Ta  Ta58  1  0.58333333  0.40995267  0.17954820  1.0
  Ta  Ta59  1  0.58333333  0.74328600  0.17954820  1.0
  Ta  Ta60  1  0.91666667  0.07661933  0.17954820  1.0
  Ta  Ta61  1  0.91666667  0.40995267  0.17954820  1.0
  Ta  Ta62  1  0.91666667  0.74328600  0.17954820  1.0
  Ta  Ta63  1  0.25000000  0.24328600  0.07954820  1.0
  Ta  Ta64  1  0.25000000  0.57661933  0.07954820  1.0
  Ta  Ta65  1  0.25000000  0.90995267  0.07954820  1.0
  Ta  Ta66  1  0.58333333  0.24328600  0.07954820  1.0
  Ta  Ta67  1  0.58333333  0.57661933  0.07954820  1.0
  Ta  Ta68  1  0.58333333  0.90995267  0.07954820  1.0
  Ta  Ta69  1  0.91666667  0.24328600  0.07954820  1.0
  Ta  Ta70  1  0.91666667  0.57661933  0.07954820  1.0
  Ta  Ta71  1  0.91666667  0.90995267  0.07954820  1.0
  Ni  Ni72  1  0.00043433  0.28390233  0.05433300  1.0
  Ni  Ni73  1  0.00043433  0.61723567  0.05433300  1.0
  Ni  Ni74  1  0.00043433  0.95056900  0.05433300  1.0
  Ni  Ni75  1  0.33376767  0.28390233  0.05433300  1.0
  Ni  Ni76  1  0.33376767  0.61723567  0.05433300  1.0
  Ni  Ni77  1  0.33376767  0.95056900  0.05433300  1.0
  Ni  Ni78  1  0.66710100  0.28390233  0.05433300  1.0
  Ni  Ni79  1  0.66710100  0.61723567  0.05433300  1.0
  Ni  Ni80  1  0.66710100  0.95056900  0.05433300  1.0
  Ni  Ni81  1  0.00043433  0.11723567  0.15433300  1.0
  Ni  Ni82  1  0.00043433  0.45056900  0.15433300  1.0
  Ni  Ni83  1  0.00043433  0.78390233  0.15433300  1.0
  Ni  Ni84  1  0.33376767  0.11723567  0.15433300  1.0
  Ni  Ni85  1  0.33376767  0.45056900  0.15433300  1.0
  Ni  Ni86  1  0.33376767  0.78390233  0.15433300  1.0
  Ni  Ni87  1  0.66710100  0.11723567  0.15433300  1.0
  Ni  Ni88  1  0.66710100  0.45056900  0.15433300  1.0
  Ni  Ni89  1  0.66710100  0.78390233  0.15433300  1.0
  Ni  Ni90  1  0.00083400  0.18518233  0.16357260  1.0
  Ni  Ni91  1  0.00083400  0.51851567  0.16357260  1.0
  Ni  Ni92  1  0.00083400  0.85184900  0.16357260  1.0
  Ni  Ni93  1  0.33416733  0.18518233  0.16357260  1.0
  Ni  Ni94  1  0.33416733  0.51851567  0.16357260  1.0
  Ni  Ni95  1  0.33416733  0.85184900  0.16357260  1.0
  Ni  Ni96  1  0.66750067  0.18518233  0.16357260  1.0
  Ni  Ni97  1  0.66750067  0.51851567  0.16357260  1.0
  Ni  Ni98  1  0.66750067  0.85184900  0.16357260  1.0
  Ni  Ni99  1  0.00083400  0.01851567  0.06357260  1.0
  Ni  Ni100  1  0.00083400  0.35184900  0.06357260  1.0
  Ni  Ni101  1  0.00083400  0.68518233  0.06357260  1.0
  Ni  Ni102  1  0.33416733  0.01851567  0.06357260  1.0
  Ni  Ni103  1  0.33416733  0.35184900  0.06357260  1.0
  Ni  Ni104  1  0.33416733  0.68518233  0.06357260  1.0
  Ni  Ni105  1  0.66750067  0.01851567  0.06357260  1.0
  Ni  Ni106  1  0.66750067  0.35184900  0.06357260  1.0
  Ni  Ni107  1  0.66750067  0.68518233  0.06357260  1.0
  Ni  Ni108  1  0.08333333  0.15848783  0.13019330  1.0
  Ni  Ni109  1  0.08333333  0.49182117  0.13019330  1.0
  Ni  Ni110  1  0.08333333  0.82515450  0.13019330  1.0
  Ni  Ni111  1  0.41666667  0.15848783  0.13019330  1.0
  Ni  Ni112  1  0.41666667  0.49182117  0.13019330  1.0
  Ni  Ni113  1  0.41666667  0.82515450  0.13019330  1.0
  Ni  Ni114  1  0.75000000  0.15848783  0.13019330  1.0
  Ni  Ni115  1  0.75000000  0.49182117  0.13019330  1.0
  Ni  Ni116  1  0.75000000  0.82515450  0.13019330  1.0
  Ni  Ni117  1  0.08333333  0.32515450  0.03019330  1.0
  Ni  Ni118  1  0.08333333  0.65848783  0.03019330  1.0
  Ni  Ni119  1  0.08333333  0.99182117  0.03019330  1.0
  Ni  Ni120  1  0.41666667  0.32515450  0.03019330  1.0
  Ni  Ni121  1  0.41666667  0.65848783  0.03019330  1.0
  Ni  Ni122  1  0.41666667  0.99182117  0.03019330  1.0
  Ni  Ni123  1  0.75000000  0.32515450  0.03019330  1.0
  Ni  Ni124  1  0.75000000  0.65848783  0.03019330  1.0
  Ni  Ni125  1  0.75000000  0.99182117  0.03019330  1.0
  Ni  Ni126  1  0.16750067  0.23065033  0.18692780  1.0
  Ni  Ni127  1  0.16750067  0.56398367  0.18692780  1.0
  Ni  Ni128  1  0.16750067  0.89731700  0.18692780  1.0
  Ni  Ni129  1  0.50083400  0.23065033  0.18692780  1.0
  Ni  Ni130  1  0.50083400  0.56398367  0.18692780  1.0
  Ni  Ni131  1  0.50083400  0.89731700  0.18692780  1.0
  Ni  Ni132  1  0.83416733  0.23065033  0.18692780  1.0
  Ni  Ni133  1  0.83416733  0.56398367  0.18692780  1.0
  Ni  Ni134  1  0.83416733  0.89731700  0.18692780  1.0
  Ni  Ni135  1  0.16750067  0.06398367  0.08692780  1.0
  Ni  Ni136  1  0.16750067  0.39731700  0.08692780  1.0
  Ni  Ni137  1  0.16750067  0.73065033  0.08692780  1.0
  Ni  Ni138  1  0.50083400  0.06398367  0.08692780  1.0
  Ni  Ni139  1  0.50083400  0.39731700  0.08692780  1.0
  Ni  Ni140  1  0.50083400  0.73065033  0.08692780  1.0
  Ni  Ni141  1  0.83416733  0.06398367  0.08692780  1.0
  Ni  Ni142  1  0.83416733  0.39731700  0.08692780  1.0
  Ni  Ni143  1  0.83416733  0.73065033  0.08692780  1.0
  Ni  Ni144  1  0.08333333  0.18631767  0.01299460  1.0
  Ni  Ni145  1  0.08333333  0.51965100  0.01299460  1.0
  Ni  Ni146  1  0.08333333  0.85298433  0.01299460  1.0
  Ni  Ni147  1  0.41666667  0.18631767  0.01299460  1.0
  Ni  Ni148  1  0.41666667  0.51965100  0.01299460  1.0
  Ni  Ni149  1  0.41666667  0.85298433  0.01299460  1.0
  Ni  Ni150  1  0.75000000  0.18631767  0.01299460  1.0
  Ni  Ni151  1  0.75000000  0.51965100  0.01299460  1.0
  Ni  Ni152  1  0.75000000  0.85298433  0.01299460  1.0
  Ni  Ni153  1  0.08333333  0.01965100  0.11299460  1.0
  Ni  Ni154  1  0.08333333  0.35298433  0.11299460  1.0
  Ni  Ni155  1  0.08333333  0.68631767  0.11299460  1.0
  Ni  Ni156  1  0.41666667  0.01965100  0.11299460  1.0
  Ni  Ni157  1  0.41666667  0.35298433  0.11299460  1.0
  Ni  Ni158  1  0.41666667  0.68631767  0.11299460  1.0
  Ni  Ni159  1  0.75000000  0.01965100  0.11299460  1.0
  Ni  Ni160  1  0.75000000  0.35298433  0.11299460  1.0
  Ni  Ni161  1  0.75000000  0.68631767  0.11299460  1.0
  Ni  Ni162  1  0.16623233  0.20100333  0.10407240  1.0
  Ni  Ni163  1  0.16623233  0.53433667  0.10407240  1.0
  Ni  Ni164  1  0.16623233  0.86767000  0.10407240  1.0
  Ni  Ni165  1  0.49956567  0.20100333  0.10407240  1.0
  Ni  Ni166  1  0.49956567  0.53433667  0.10407240  1.0
  Ni  Ni167  1  0.49956567  0.86767000  0.10407240  1.0
  Ni  Ni168  1  0.83289900  0.20100333  0.10407240  1.0
  Ni  Ni169  1  0.83289900  0.53433667  0.10407240  1.0
  Ni  Ni170  1  0.83289900  0.86767000  0.10407240  1.0
  Ni  Ni171  1  0.16623233  0.03433667  0.00407240  1.0
  Ni  Ni172  1  0.16623233  0.36767000  0.00407240  1.0
  Ni  Ni173  1  0.16623233  0.70100333  0.00407240  1.0
  Ni  Ni174  1  0.49956567  0.03433667  0.00407240  1.0
  Ni  Ni175  1  0.49956567  0.36767000  0.00407240  1.0
  Ni  Ni176  1  0.49956567  0.70100333  0.00407240  1.0
  Ni  Ni177  1  0.83289900  0.03433667  0.00407240  1.0
  Ni  Ni178  1  0.83289900  0.36767000  0.00407240  1.0
  Ni  Ni179  1  0.83289900  0.70100333  0.00407240  1.0
  Ni  Ni180  1  0.25000000  0.14701567  0.18700540  1.0
  Ni  Ni181  1  0.25000000  0.48034900  0.18700540  1.0
  Ni  Ni182  1  0.25000000  0.81368233  0.18700540  1.0
  Ni  Ni183  1  0.58333333  0.14701567  0.18700540  1.0
  Ni  Ni184  1  0.58333333  0.48034900  0.18700540  1.0
  Ni  Ni185  1  0.58333333  0.81368233  0.18700540  1.0
  Ni  Ni186  1  0.91666667  0.14701567  0.18700540  1.0
  Ni  Ni187  1  0.91666667  0.48034900  0.18700540  1.0
  Ni  Ni188  1  0.91666667  0.81368233  0.18700540  1.0
  Ni  Ni189  1  0.25000000  0.31368233  0.08700540  1.0
  Ni  Ni190  1  0.25000000  0.64701567  0.08700540  1.0
  Ni  Ni191  1  0.25000000  0.98034900  0.08700540  1.0
  Ni  Ni192  1  0.58333333  0.31368233  0.08700540  1.0
  Ni  Ni193  1  0.58333333  0.64701567  0.08700540  1.0
  Ni  Ni194  1  0.58333333  0.98034900  0.08700540  1.0
  Ni  Ni195  1  0.91666667  0.31368233  0.08700540  1.0
  Ni  Ni196  1  0.91666667  0.64701567  0.08700540  1.0
  Ni  Ni197  1  0.91666667  0.98034900  0.08700540  1.0
  Ni  Ni198  1  0.33289900  0.04943100  0.14566700  1.0
  Ni  Ni199  1  0.33289900  0.38276433  0.14566700  1.0
  Ni  Ni200  1  0.33289900  0.71609767  0.14566700  1.0
  Ni  Ni201  1  0.66623233  0.04943100  0.14566700  1.0
  Ni  Ni202  1  0.66623233  0.38276433  0.14566700  1.0
  Ni  Ni203  1  0.66623233  0.71609767  0.14566700  1.0
  Ni  Ni204  1  0.99956567  0.04943100  0.14566700  1.0
  Ni  Ni205  1  0.99956567  0.38276433  0.14566700  1.0
  Ni  Ni206  1  0.99956567  0.71609767  0.14566700  1.0
  Ni  Ni207  1  0.33289900  0.21609767  0.04566700  1.0
  Ni  Ni208  1  0.33289900  0.54943100  0.04566700  1.0
  Ni  Ni209  1  0.33289900  0.88276433  0.04566700  1.0
  Ni  Ni210  1  0.66623233  0.21609767  0.04566700  1.0
  Ni  Ni211  1  0.66623233  0.54943100  0.04566700  1.0
  Ni  Ni212  1  0.66623233  0.88276433  0.04566700  1.0
  Ni  Ni213  1  0.99956567  0.21609767  0.04566700  1.0
  Ni  Ni214  1  0.99956567  0.54943100  0.04566700  1.0
  Ni  Ni215  1  0.99956567  0.88276433  0.04566700  1.0
  Ni  Ni216  1  0.16710100  0.13233000  0.09592760  1.0
  Ni  Ni217  1  0.16710100  0.46566333  0.09592760  1.0
  Ni  Ni218  1  0.16710100  0.79899667  0.09592760  1.0
  Ni  Ni219  1  0.50043433  0.13233000  0.09592760  1.0
  Ni  Ni220  1  0.50043433  0.46566333  0.09592760  1.0
  Ni  Ni221  1  0.50043433  0.79899667  0.09592760  1.0
  Ni  Ni222  1  0.83376767  0.13233000  0.09592760  1.0
  Ni  Ni223  1  0.83376767  0.46566333  0.09592760  1.0
  Ni  Ni224  1  0.83376767  0.79899667  0.09592760  1.0
  Ni  Ni225  1  0.16710100  0.29899667  0.19592760  1.0
  Ni  Ni226  1  0.16710100  0.63233000  0.19592760  1.0
  Ni  Ni227  1  0.16710100  0.96566333  0.19592760  1.0
  Ni  Ni228  1  0.50043433  0.29899667  0.19592760  1.0
  Ni  Ni229  1  0.50043433  0.63233000  0.19592760  1.0
  Ni  Ni230  1  0.50043433  0.96566333  0.19592760  1.0
  Ni  Ni231  1  0.83376767  0.29899667  0.19592760  1.0
  Ni  Ni232  1  0.83376767  0.63233000  0.19592760  1.0
  Ni  Ni233  1  0.83376767  0.96566333  0.19592760  1.0
  Ni  Ni234  1  0.33249933  0.14815100  0.03642740  1.0
  Ni  Ni235  1  0.33249933  0.48148433  0.03642740  1.0
  Ni  Ni236  1  0.33249933  0.81481767  0.03642740  1.0
  Ni  Ni237  1  0.66583267  0.14815100  0.03642740  1.0
  Ni  Ni238  1  0.66583267  0.48148433  0.03642740  1.0
  Ni  Ni239  1  0.66583267  0.81481767  0.03642740  1.0
  Ni  Ni240  1  0.99916600  0.14815100  0.03642740  1.0
  Ni  Ni241  1  0.99916600  0.48148433  0.03642740  1.0
  Ni  Ni242  1  0.99916600  0.81481767  0.03642740  1.0
  Ni  Ni243  1  0.33249933  0.31481767  0.13642740  1.0
  Ni  Ni244  1  0.33249933  0.64815100  0.13642740  1.0
  Ni  Ni245  1  0.33249933  0.98148433  0.13642740  1.0
  Ni  Ni246  1  0.66583267  0.31481767  0.13642740  1.0
  Ni  Ni247  1  0.66583267  0.64815100  0.13642740  1.0
  Ni  Ni248  1  0.66583267  0.98148433  0.13642740  1.0
  Ni  Ni249  1  0.99916600  0.31481767  0.13642740  1.0
  Ni  Ni250  1  0.99916600  0.64815100  0.13642740  1.0
  Ni  Ni251  1  0.99916600  0.98148433  0.13642740  1.0
  Ni  Ni252  1  0.25000000  0.17484550  0.06980670  1.0
  Ni  Ni253  1  0.25000000  0.50817883  0.06980670  1.0
  Ni  Ni254  1  0.25000000  0.84151217  0.06980670  1.0
  Ni  Ni255  1  0.58333333  0.17484550  0.06980670  1.0
  Ni  Ni256  1  0.58333333  0.50817883  0.06980670  1.0
  Ni  Ni257  1  0.58333333  0.84151217  0.06980670  1.0
  Ni  Ni258  1  0.91666667  0.17484550  0.06980670  1.0
  Ni  Ni259  1  0.91666667  0.50817883  0.06980670  1.0
  Ni  Ni260  1  0.91666667  0.84151217  0.06980670  1.0
  Ni  Ni261  1  0.25000000  0.00817883  0.16980670  1.0
  Ni  Ni262  1  0.25000000  0.34151217  0.16980670  1.0
  Ni  Ni263  1  0.25000000  0.67484550  0.16980670  1.0
  Ni  Ni264  1  0.58333333  0.00817883  0.16980670  1.0
  Ni  Ni265  1  0.58333333  0.34151217  0.16980670  1.0
  Ni  Ni266  1  0.58333333  0.67484550  0.16980670  1.0
  Ni  Ni267  1  0.91666667  0.00817883  0.16980670  1.0
  Ni  Ni268  1  0.91666667  0.34151217  0.16980670  1.0
  Ni  Ni269  1  0.91666667  0.67484550  0.16980670  1.0
  Ni  Ni270  1  0.16583267  0.10268300  0.01307220  1.0
  Ni  Ni271  1  0.16583267  0.43601633  0.01307220  1.0
  Ni  Ni272  1  0.16583267  0.76934967  0.01307220  1.0
  Ni  Ni273  1  0.49916600  0.10268300  0.01307220  1.0
  Ni  Ni274  1  0.49916600  0.43601633  0.01307220  1.0
  Ni  Ni275  1  0.49916600  0.76934967  0.01307220  1.0
  Ni  Ni276  1  0.83249933  0.10268300  0.01307220  1.0
  Ni  Ni277  1  0.83249933  0.43601633  0.01307220  1.0
  Ni  Ni278  1  0.83249933  0.76934967  0.01307220  1.0
  Ni  Ni279  1  0.16583267  0.26934967  0.11307220  1.0
  Ni  Ni280  1  0.16583267  0.60268300  0.11307220  1.0
  Ni  Ni281  1  0.16583267  0.93601633  0.11307220  1.0
  Ni  Ni282  1  0.49916600  0.26934967  0.11307220  1.0
  Ni  Ni283  1  0.49916600  0.60268300  0.11307220  1.0
  Ni  Ni284  1  0.49916600  0.93601633  0.11307220  1.0
  Ni  Ni285  1  0.83249933  0.26934967  0.11307220  1.0
  Ni  Ni286  1  0.83249933  0.60268300  0.11307220  1.0
  Ni  Ni287  1  0.83249933  0.93601633  0.11307220  1.0
  Ta  Ta288  1  0.08333333  0.22697417  0.33944630  1.0
  Ta  Ta289  1  0.08333333  0.56030750  0.33944630  1.0
  Ta  Ta290  1  0.08333333  0.89364083  0.33944630  1.0
  Ta  Ta291  1  0.41666667  0.22697417  0.33944630  1.0
  Ta  Ta292  1  0.41666667  0.56030750  0.33944630  1.0
  Ta  Ta293  1  0.41666667  0.89364083  0.33944630  1.0
  Ta  Ta294  1  0.75000000  0.22697417  0.33944630  1.0
  Ta  Ta295  1  0.75000000  0.56030750  0.33944630  1.0
  Ta  Ta296  1  0.75000000  0.89364083  0.33944630  1.0
  Ta  Ta297  1  0.08333333  0.06030750  0.23944630  1.0
  Ta  Ta298  1  0.08333333  0.39364083  0.23944630  1.0
  Ta  Ta299  1  0.08333333  0.72697417  0.23944630  1.0
  Ta  Ta300  1  0.41666667  0.06030750  0.23944630  1.0
  Ta  Ta301  1  0.41666667  0.39364083  0.23944630  1.0
  Ta  Ta302  1  0.41666667  0.72697417  0.23944630  1.0
  Ta  Ta303  1  0.75000000  0.06030750  0.23944630  1.0
  Ta  Ta304  1  0.75000000  0.39364083  0.23944630  1.0
  Ta  Ta305  1  0.75000000  0.72697417  0.23944630  1.0
  Ta  Ta306  1  0.25000000  0.10635917  0.26055370  1.0
  Ta  Ta307  1  0.25000000  0.43969250  0.26055370  1.0
  Ta  Ta308  1  0.25000000  0.77302583  0.26055370  1.0
  Ta  Ta309  1  0.58333333  0.10635917  0.26055370  1.0
  Ta  Ta310  1  0.58333333  0.43969250  0.26055370  1.0
  Ta  Ta311  1  0.58333333  0.77302583  0.26055370  1.0
  Ta  Ta312  1  0.91666667  0.10635917  0.26055370  1.0
  Ta  Ta313  1  0.91666667  0.43969250  0.26055370  1.0
  Ta  Ta314  1  0.91666667  0.77302583  0.26055370  1.0
  Ta  Ta315  1  0.25000000  0.27302583  0.36055370  1.0
  Ta  Ta316  1  0.25000000  0.60635917  0.36055370  1.0
  Ta  Ta317  1  0.25000000  0.93969250  0.36055370  1.0
  Ta  Ta318  1  0.58333333  0.27302583  0.36055370  1.0
  Ta  Ta319  1  0.58333333  0.60635917  0.36055370  1.0
  Ta  Ta320  1  0.58333333  0.93969250  0.36055370  1.0
  Ta  Ta321  1  0.91666667  0.27302583  0.36055370  1.0
  Ta  Ta322  1  0.91666667  0.60635917  0.36055370  1.0
  Ta  Ta323  1  0.91666667  0.93969250  0.36055370  1.0
  Ta  Ta324  1  0.08333333  0.25671400  0.22045180  1.0
  Ta  Ta325  1  0.08333333  0.59004733  0.22045180  1.0
  Ta  Ta326  1  0.08333333  0.92338067  0.22045180  1.0
  Ta  Ta327  1  0.41666667  0.25671400  0.22045180  1.0
  Ta  Ta328  1  0.41666667  0.59004733  0.22045180  1.0
  Ta  Ta329  1  0.41666667  0.92338067  0.22045180  1.0
  Ta  Ta330  1  0.75000000  0.25671400  0.22045180  1.0
  Ta  Ta331  1  0.75000000  0.59004733  0.22045180  1.0
  Ta  Ta332  1  0.75000000  0.92338067  0.22045180  1.0
  Ta  Ta333  1  0.08333333  0.09004733  0.32045180  1.0
  Ta  Ta334  1  0.08333333  0.42338067  0.32045180  1.0
  Ta  Ta335  1  0.08333333  0.75671400  0.32045180  1.0
  Ta  Ta336  1  0.41666667  0.09004733  0.32045180  1.0
  Ta  Ta337  1  0.41666667  0.42338067  0.32045180  1.0
  Ta  Ta338  1  0.41666667  0.75671400  0.32045180  1.0
  Ta  Ta339  1  0.75000000  0.09004733  0.32045180  1.0
  Ta  Ta340  1  0.75000000  0.42338067  0.32045180  1.0
  Ta  Ta341  1  0.75000000  0.75671400  0.32045180  1.0
  Ta  Ta342  1  0.25000000  0.07661933  0.37954820  1.0
  Ta  Ta343  1  0.25000000  0.40995267  0.37954820  1.0
  Ta  Ta344  1  0.25000000  0.74328600  0.37954820  1.0
  Ta  Ta345  1  0.58333333  0.07661933  0.37954820  1.0
  Ta  Ta346  1  0.58333333  0.40995267  0.37954820  1.0
  Ta  Ta347  1  0.58333333  0.74328600  0.37954820  1.0
  Ta  Ta348  1  0.91666667  0.07661933  0.37954820  1.0
  Ta  Ta349  1  0.91666667  0.40995267  0.37954820  1.0
  Ta  Ta350  1  0.91666667  0.74328600  0.37954820  1.0
  Ta  Ta351  1  0.25000000  0.24328600  0.27954820  1.0
  Ta  Ta352  1  0.25000000  0.57661933  0.27954820  1.0
  Ta  Ta353  1  0.25000000  0.90995267  0.27954820  1.0
  Ta  Ta354  1  0.58333333  0.24328600  0.27954820  1.0
  Ta  Ta355  1  0.58333333  0.57661933  0.27954820  1.0
  Ta  Ta356  1  0.58333333  0.90995267  0.27954820  1.0
  Ta  Ta357  1  0.91666667  0.24328600  0.27954820  1.0
  Ta  Ta358  1  0.91666667  0.57661933  0.27954820  1.0
  Ta  Ta359  1  0.91666667  0.90995267  0.27954820  1.0
  Ni  Ni360  1  0.00043433  0.28390233  0.25433300  1.0
  Ni  Ni361  1  0.00043433  0.61723567  0.25433300  1.0
  Ni  Ni362  1  0.00043433  0.95056900  0.25433300  1.0
  Ni  Ni363  1  0.33376767  0.28390233  0.25433300  1.0
  Ni  Ni364  1  0.33376767  0.61723567  0.25433300  1.0
  Ni  Ni365  1  0.33376767  0.95056900  0.25433300  1.0
  Ni  Ni366  1  0.66710100  0.28390233  0.25433300  1.0
  Ni  Ni367  1  0.66710100  0.61723567  0.25433300  1.0
  Ni  Ni368  1  0.66710100  0.95056900  0.25433300  1.0
  Ni  Ni369  1  0.00043433  0.11723567  0.35433300  1.0
  Ni  Ni370  1  0.00043433  0.45056900  0.35433300  1.0
  Ni  Ni371  1  0.00043433  0.78390233  0.35433300  1.0
  Ni  Ni372  1  0.33376767  0.11723567  0.35433300  1.0
  Ni  Ni373  1  0.33376767  0.45056900  0.35433300  1.0
  Ni  Ni374  1  0.33376767  0.78390233  0.35433300  1.0
  Ni  Ni375  1  0.66710100  0.11723567  0.35433300  1.0
  Ni  Ni376  1  0.66710100  0.45056900  0.35433300  1.0
  Ni  Ni377  1  0.66710100  0.78390233  0.35433300  1.0
  Ni  Ni378  1  0.00083400  0.18518233  0.36357260  1.0
  Ni  Ni379  1  0.00083400  0.51851567  0.36357260  1.0
  Ni  Ni380  1  0.00083400  0.85184900  0.36357260  1.0
  Ni  Ni381  1  0.33416733  0.18518233  0.36357260  1.0
  Ni  Ni382  1  0.33416733  0.51851567  0.36357260  1.0
  Ni  Ni383  1  0.33416733  0.85184900  0.36357260  1.0
  Ni  Ni384  1  0.66750067  0.18518233  0.36357260  1.0
  Ni  Ni385  1  0.66750067  0.51851567  0.36357260  1.0
  Ni  Ni386  1  0.66750067  0.85184900  0.36357260  1.0
  Ni  Ni387  1  0.00083400  0.01851567  0.26357260  1.0
  Ni  Ni388  1  0.00083400  0.35184900  0.26357260  1.0
  Ni  Ni389  1  0.00083400  0.68518233  0.26357260  1.0
  Ni  Ni390  1  0.33416733  0.01851567  0.26357260  1.0
  Ni  Ni391  1  0.33416733  0.35184900  0.26357260  1.0
  Ni  Ni392  1  0.33416733  0.68518233  0.26357260  1.0
  Ni  Ni393  1  0.66750067  0.01851567  0.26357260  1.0
  Ni  Ni394  1  0.66750067  0.35184900  0.26357260  1.0
  Ni  Ni395  1  0.66750067  0.68518233  0.26357260  1.0
  Ni  Ni396  1  0.08333333  0.15848783  0.33019330  1.0
  Ni  Ni397  1  0.08333333  0.49182117  0.33019330  1.0
  Ni  Ni398  1  0.08333333  0.82515450  0.33019330  1.0
  Ni  Ni399  1  0.41666667  0.15848783  0.33019330  1.0
  Ni  Ni400  1  0.41666667  0.49182117  0.33019330  1.0
  Ni  Ni401  1  0.41666667  0.82515450  0.33019330  1.0
  Ni  Ni402  1  0.75000000  0.15848783  0.33019330  1.0
  Ni  Ni403  1  0.75000000  0.49182117  0.33019330  1.0
  Ni  Ni404  1  0.75000000  0.82515450  0.33019330  1.0
  Ni  Ni405  1  0.08333333  0.32515450  0.23019330  1.0
  Ni  Ni406  1  0.08333333  0.65848783  0.23019330  1.0
  Ni  Ni407  1  0.08333333  0.99182117  0.23019330  1.0
  Ni  Ni408  1  0.41666667  0.32515450  0.23019330  1.0
  Ni  Ni409  1  0.41666667  0.65848783  0.23019330  1.0
  Ni  Ni410  1  0.41666667  0.99182117  0.23019330  1.0
  Ni  Ni411  1  0.75000000  0.32515450  0.23019330  1.0
  Ni  Ni412  1  0.75000000  0.65848783  0.23019330  1.0
  Ni  Ni413  1  0.75000000  0.99182117  0.23019330  1.0
  Ni  Ni414  1  0.16750067  0.23065033  0.38692780  1.0
  Ni  Ni415  1  0.16750067  0.56398367  0.38692780  1.0
  Ni  Ni416  1  0.16750067  0.89731700  0.38692780  1.0
  Ni  Ni417  1  0.50083400  0.23065033  0.38692780  1.0
  Ni  Ni418  1  0.50083400  0.56398367  0.38692780  1.0
  Ni  Ni419  1  0.50083400  0.89731700  0.38692780  1.0
  Ni  Ni420  1  0.83416733  0.23065033  0.38692780  1.0
  Ni  Ni421  1  0.83416733  0.56398367  0.38692780  1.0
  Ni  Ni422  1  0.83416733  0.89731700  0.38692780  1.0
  Ni  Ni423  1  0.16750067  0.06398367  0.28692780  1.0
  Ni  Ni424  1  0.16750067  0.39731700  0.28692780  1.0
  Ni  Ni425  1  0.16750067  0.73065033  0.28692780  1.0
  Ni  Ni426  1  0.50083400  0.06398367  0.28692780  1.0
  Ni  Ni427  1  0.50083400  0.39731700  0.28692780  1.0
  Ni  Ni428  1  0.50083400  0.73065033  0.28692780  1.0
  Ni  Ni429  1  0.83416733  0.06398367  0.28692780  1.0
  Ni  Ni430  1  0.83416733  0.39731700  0.28692780  1.0
  Ni  Ni431  1  0.83416733  0.73065033  0.28692780  1.0
  Ni  Ni432  1  0.08333333  0.18631767  0.21299460  1.0
  Ni  Ni433  1  0.08333333  0.51965100  0.21299460  1.0
  Ni  Ni434  1  0.08333333  0.85298433  0.21299460  1.0
  Ni  Ni435  1  0.41666667  0.18631767  0.21299460  1.0
  Ni  Ni436  1  0.41666667  0.51965100  0.21299460  1.0
  Ni  Ni437  1  0.41666667  0.85298433  0.21299460  1.0
  Ni  Ni438  1  0.75000000  0.18631767  0.21299460  1.0
  Ni  Ni439  1  0.75000000  0.51965100  0.21299460  1.0
  Ni  Ni440  1  0.75000000  0.85298433  0.21299460  1.0
  Ni  Ni441  1  0.08333333  0.01965100  0.31299460  1.0
  Ni  Ni442  1  0.08333333  0.35298433  0.31299460  1.0
  Ni  Ni443  1  0.08333333  0.68631767  0.31299460  1.0
  Ni  Ni444  1  0.41666667  0.01965100  0.31299460  1.0
  Ni  Ni445  1  0.41666667  0.35298433  0.31299460  1.0
  Ni  Ni446  1  0.41666667  0.68631767  0.31299460  1.0
  Ni  Ni447  1  0.75000000  0.01965100  0.31299460  1.0
  Ni  Ni448  1  0.75000000  0.35298433  0.31299460  1.0
  Ni  Ni449  1  0.75000000  0.68631767  0.31299460  1.0
  Ni  Ni450  1  0.16623233  0.20100333  0.30407240  1.0
  Ni  Ni451  1  0.16623233  0.53433667  0.30407240  1.0
  Ni  Ni452  1  0.16623233  0.86767000  0.30407240  1.0
  Ni  Ni453  1  0.49956567  0.20100333  0.30407240  1.0
  Ni  Ni454  1  0.49956567  0.53433667  0.30407240  1.0
  Ni  Ni455  1  0.49956567  0.86767000  0.30407240  1.0
  Ni  Ni456  1  0.83289900  0.20100333  0.30407240  1.0
  Ni  Ni457  1  0.83289900  0.53433667  0.30407240  1.0
  Ni  Ni458  1  0.83289900  0.86767000  0.30407240  1.0
  Ni  Ni459  1  0.16623233  0.03433667  0.20407240  1.0
  Ni  Ni460  1  0.16623233  0.36767000  0.20407240  1.0
  Ni  Ni461  1  0.16623233  0.70100333  0.20407240  1.0
  Ni  Ni462  1  0.49956567  0.03433667  0.20407240  1.0
  Ni  Ni463  1  0.49956567  0.36767000  0.20407240  1.0
  Ni  Ni464  1  0.49956567  0.70100333  0.20407240  1.0
  Ni  Ni465  1  0.83289900  0.03433667  0.20407240  1.0
  Ni  Ni466  1  0.83289900  0.36767000  0.20407240  1.0
  Ni  Ni467  1  0.83289900  0.70100333  0.20407240  1.0
  Ni  Ni468  1  0.25000000  0.14701567  0.38700540  1.0
  Ni  Ni469  1  0.25000000  0.48034900  0.38700540  1.0
  Ni  Ni470  1  0.25000000  0.81368233  0.38700540  1.0
  Ni  Ni471  1  0.58333333  0.14701567  0.38700540  1.0
  Ni  Ni472  1  0.58333333  0.48034900  0.38700540  1.0
  Ni  Ni473  1  0.58333333  0.81368233  0.38700540  1.0
  Ni  Ni474  1  0.91666667  0.14701567  0.38700540  1.0
  Ni  Ni475  1  0.91666667  0.48034900  0.38700540  1.0
  Ni  Ni476  1  0.91666667  0.81368233  0.38700540  1.0
  Ni  Ni477  1  0.25000000  0.31368233  0.28700540  1.0
  Ni  Ni478  1  0.25000000  0.64701567  0.28700540  1.0
  Ni  Ni479  1  0.25000000  0.98034900  0.28700540  1.0
  Ni  Ni480  1  0.58333333  0.31368233  0.28700540  1.0
  Ni  Ni481  1  0.58333333  0.64701567  0.28700540  1.0
  Ni  Ni482  1  0.58333333  0.98034900  0.28700540  1.0
  Ni  Ni483  1  0.91666667  0.31368233  0.28700540  1.0
  Ni  Ni484  1  0.91666667  0.64701567  0.28700540  1.0
  Ni  Ni485  1  0.91666667  0.98034900  0.28700540  1.0
  Ni  Ni486  1  0.33289900  0.04943100  0.34566700  1.0
  Ni  Ni487  1  0.33289900  0.38276433  0.34566700  1.0
  Ni  Ni488  1  0.33289900  0.71609767  0.34566700  1.0
  Ni  Ni489  1  0.66623233  0.04943100  0.34566700  1.0
  Ni  Ni490  1  0.66623233  0.38276433  0.34566700  1.0
  Ni  Ni491  1  0.66623233  0.71609767  0.34566700  1.0
  Ni  Ni492  1  0.99956567  0.04943100  0.34566700  1.0
  Ni  Ni493  1  0.99956567  0.38276433  0.34566700  1.0
  Ni  Ni494  1  0.99956567  0.71609767  0.34566700  1.0
  Ni  Ni495  1  0.33289900  0.21609767  0.24566700  1.0
  Ni  Ni496  1  0.33289900  0.54943100  0.24566700  1.0
  Ni  Ni497  1  0.33289900  0.88276433  0.24566700  1.0
  Ni  Ni498  1  0.66623233  0.21609767  0.24566700  1.0
  Ni  Ni499  1  0.66623233  0.54943100  0.24566700  1.0
  Ni  Ni500  1  0.66623233  0.88276433  0.24566700  1.0
  Ni  Ni501  1  0.99956567  0.21609767  0.24566700  1.0
  Ni  Ni502  1  0.99956567  0.54943100  0.24566700  1.0
  Ni  Ni503  1  0.99956567  0.88276433  0.24566700  1.0
  Ni  Ni504  1  0.16710100  0.13233000  0.29592760  1.0
  Ni  Ni505  1  0.16710100  0.46566333  0.29592760  1.0
  Ni  Ni506  1  0.16710100  0.79899667  0.29592760  1.0
  Ni  Ni507  1  0.50043433  0.13233000  0.29592760  1.0
  Ni  Ni508  1  0.50043433  0.46566333  0.29592760  1.0
  Ni  Ni509  1  0.50043433  0.79899667  0.29592760  1.0
  Ni  Ni510  1  0.83376767  0.13233000  0.29592760  1.0
  Ni  Ni511  1  0.83376767  0.46566333  0.29592760  1.0
  Ni  Ni512  1  0.83376767  0.79899667  0.29592760  1.0
  Ni  Ni513  1  0.16710100  0.29899667  0.39592760  1.0
  Ni  Ni514  1  0.16710100  0.63233000  0.39592760  1.0
  Ni  Ni515  1  0.16710100  0.96566333  0.39592760  1.0
  Ni  Ni516  1  0.50043433  0.29899667  0.39592760  1.0
  Ni  Ni517  1  0.50043433  0.63233000  0.39592760  1.0
  Ni  Ni518  1  0.50043433  0.96566333  0.39592760  1.0
  Ni  Ni519  1  0.83376767  0.29899667  0.39592760  1.0
  Ni  Ni520  1  0.83376767  0.63233000  0.39592760  1.0
  Ni  Ni521  1  0.83376767  0.96566333  0.39592760  1.0
  Ni  Ni522  1  0.33249933  0.14815100  0.23642740  1.0
  Ni  Ni523  1  0.33249933  0.48148433  0.23642740  1.0
  Ni  Ni524  1  0.33249933  0.81481767  0.23642740  1.0
  Ni  Ni525  1  0.66583267  0.14815100  0.23642740  1.0
  Ni  Ni526  1  0.66583267  0.48148433  0.23642740  1.0
  Ni  Ni527  1  0.66583267  0.81481767  0.23642740  1.0
  Ni  Ni528  1  0.99916600  0.14815100  0.23642740  1.0
  Ni  Ni529  1  0.99916600  0.48148433  0.23642740  1.0
  Ni  Ni530  1  0.99916600  0.81481767  0.23642740  1.0
  Ni  Ni531  1  0.33249933  0.31481767  0.33642740  1.0
  Ni  Ni532  1  0.33249933  0.64815100  0.33642740  1.0
  Ni  Ni533  1  0.33249933  0.98148433  0.33642740  1.0
  Ni  Ni534  1  0.66583267  0.31481767  0.33642740  1.0
  Ni  Ni535  1  0.66583267  0.64815100  0.33642740  1.0
  Ni  Ni536  1  0.66583267  0.98148433  0.33642740  1.0
  Ni  Ni537  1  0.99916600  0.31481767  0.33642740  1.0
  Ni  Ni538  1  0.99916600  0.64815100  0.33642740  1.0
  Ni  Ni539  1  0.99916600  0.98148433  0.33642740  1.0
  Ni  Ni540  1  0.25000000  0.17484550  0.26980670  1.0
  Ni  Ni541  1  0.25000000  0.50817883  0.26980670  1.0
  Ni  Ni542  1  0.25000000  0.84151217  0.26980670  1.0
  Ni  Ni543  1  0.58333333  0.17484550  0.26980670  1.0
  Ni  Ni544  1  0.58333333  0.50817883  0.26980670  1.0
  Ni  Ni545  1  0.58333333  0.84151217  0.26980670  1.0
  Ni  Ni546  1  0.91666667  0.17484550  0.26980670  1.0
  Ni  Ni547  1  0.91666667  0.50817883  0.26980670  1.0
  Ni  Ni548  1  0.91666667  0.84151217  0.26980670  1.0
  Ni  Ni549  1  0.25000000  0.00817883  0.36980670  1.0
  Ni  Ni550  1  0.25000000  0.34151217  0.36980670  1.0
  Ni  Ni551  1  0.25000000  0.67484550  0.36980670  1.0
  Ni  Ni552  1  0.58333333  0.00817883  0.36980670  1.0
  Ni  Ni553  1  0.58333333  0.34151217  0.36980670  1.0
  Ni  Ni554  1  0.58333333  0.67484550  0.36980670  1.0
  Ni  Ni555  1  0.91666667  0.00817883  0.36980670  1.0
  Ni  Ni556  1  0.91666667  0.34151217  0.36980670  1.0
  Ni  Ni557  1  0.91666667  0.67484550  0.36980670  1.0
  Ni  Ni558  1  0.16583267  0.10268300  0.21307220  1.0
  Ni  Ni559  1  0.16583267  0.43601633  0.21307220  1.0
  Ni  Ni560  1  0.16583267  0.76934967  0.21307220  1.0
  Ni  Ni561  1  0.49916600  0.10268300  0.21307220  1.0
  Ni  Ni562  1  0.49916600  0.43601633  0.21307220  1.0
  Ni  Ni563  1  0.49916600  0.76934967  0.21307220  1.0
  Ni  Ni564  1  0.83249933  0.10268300  0.21307220  1.0
  Ni  Ni565  1  0.83249933  0.43601633  0.21307220  1.0
  Ni  Ni566  1  0.83249933  0.76934967  0.21307220  1.0
  Ni  Ni567  1  0.16583267  0.26934967  0.31307220  1.0
  Ni  Ni568  1  0.16583267  0.60268300  0.31307220  1.0
  Ni  Ni569  1  0.16583267  0.93601633  0.31307220  1.0
  Ni  Ni570  1  0.49916600  0.26934967  0.31307220  1.0
  Ni  Ni571  1  0.49916600  0.60268300  0.31307220  1.0
  Ni  Ni572  1  0.49916600  0.93601633  0.31307220  1.0
  Ni  Ni573  1  0.83249933  0.26934967  0.31307220  1.0
  Ni  Ni574  1  0.83249933  0.60268300  0.31307220  1.0
  Ni  Ni575  1  0.83249933  0.93601633  0.31307220  1.0
