# generated using pymatgen
data_TaNi3
_symmetry_space_group_name_H-M   'P 1'
_cell_length_a   13.61864700
_cell_length_b   15.35218800
_cell_length_c   34.52957416
_cell_angle_alpha   90.00000000
_cell_angle_beta   100.82077676
_cell_angle_gamma   90.00000000
_symmetry_Int_Tables_number   1
_chemical_formula_structural   TaNi3
_chemical_formula_sum   'Ta72 Ni216'
_cell_volume   7090.94147956
_cell_formula_units_Z   72
loop_
 _symmetry_equiv_pos_site_id
 _symmetry_equiv_pos_as_xyz
  1  'x, y, z'
loop_
 _atom_site_type_symbol
 _atom_site_label
 _atom_site_symmetry_multiplicity
 _atom_site_fract_x
 _atom_site_fract_y
 _atom_site_fract_z
 _atom_site_occupancy
  Ta  Ta0  1  0.20394833  0.25000000  0.03244075  1.0
  Ta  Ta1  1  0.20394833  0.58333333  0.03244075  1.0
  Ta  Ta2  1  0.20394833  0.91666667  0.03244075  1.0
  Ta  Ta3  1  0.53728167  0.25000000  0.03244075  1.0
  Ta  Ta4  1  0.53728167  0.58333333  0.03244075  1.0
  Ta  Ta5  1  0.53728167  0.91666667  0.03244075  1.0
  Ta  Ta6  1  0.87061500  0.25000000  0.03244075  1.0
  Ta  Ta7  1  0.87061500  0.58333333  0.03244075  1.0
  Ta  Ta8  1  0.87061500  0.91666667  0.03244075  1.0
  Ta  Ta9  1  0.12938500  0.08333333  0.09336375  1.0
  Ta  Ta10  1  0.12938500  0.41666667  0.09336375  1.0
  Ta  Ta11  1  0.12938500  0.75000000  0.09336375  1.0
  Ta  Ta12  1  0.46271833  0.08333333  0.09336375  1.0
  Ta  Ta13  1  0.46271833  0.41666667  0.09336375  1.0
  Ta  Ta14  1  0.46271833  0.75000000  0.09336375  1.0
  Ta  Ta15  1  0.79605167  0.08333333  0.09336375  1.0
  Ta  Ta16  1  0.79605167  0.41666667  0.09336375  1.0
  Ta  Ta17  1  0.79605167  0.75000000  0.09336375  1.0
  Ta  Ta18  1  0.26342800  0.25000000  0.15600250  1.0
  Ta  Ta19  1  0.26342800  0.58333333  0.15600250  1.0
  Ta  Ta20  1  0.26342800  0.91666667  0.15600250  1.0
  Ta  Ta21  1  0.59676133  0.25000000  0.15600250  1.0
  Ta  Ta22  1  0.59676133  0.58333333  0.15600250  1.0
  Ta  Ta23  1  0.59676133  0.91666667  0.15600250  1.0
  Ta  Ta24  1  0.93009467  0.25000000  0.15600250  1.0
  Ta  Ta25  1  0.93009467  0.58333333  0.15600250  1.0
  Ta  Ta26  1  0.93009467  0.91666667  0.15600250  1.0
  Ta  Ta27  1  0.06990533  0.08333333  0.21980200  1.0
  Ta  Ta28  1  0.06990533  0.41666667  0.21980200  1.0
  Ta  Ta29  1  0.06990533  0.75000000  0.21980200  1.0
  Ta  Ta30  1  0.40323867  0.08333333  0.21980200  1.0
  Ta  Ta31  1  0.40323867  0.41666667  0.21980200  1.0
  Ta  Ta32  1  0.40323867  0.75000000  0.21980200  1.0
  Ta  Ta33  1  0.73657200  0.08333333  0.21980200  1.0
  Ta  Ta34  1  0.73657200  0.41666667  0.21980200  1.0
  Ta  Ta35  1  0.73657200  0.75000000  0.21980200  1.0
  Ni  Ni36  1  0.23490567  0.33289900  0.21874525  1.0
  Ni  Ni37  1  0.23490567  0.66623233  0.21874525  1.0
  Ni  Ni38  1  0.23490567  0.99956567  0.21874525  1.0
  Ni  Ni39  1  0.56823900  0.33289900  0.21874525  1.0
  Ni  Ni40  1  0.56823900  0.66623233  0.21874525  1.0
  Ni  Ni41  1  0.56823900  0.99956567  0.21874525  1.0
  Ni  Ni42  1  0.90157233  0.33289900  0.21874525  1.0
  Ni  Ni43  1  0.90157233  0.66623233  0.21874525  1.0
  Ni  Ni44  1  0.90157233  0.99956567  0.21874525  1.0
  Ni  Ni45  1  0.03786533  0.33249933  0.03125475  1.0
  Ni  Ni46  1  0.03786533  0.66583267  0.03125475  1.0
  Ni  Ni47  1  0.03786533  0.99916600  0.03125475  1.0
  Ni  Ni48  1  0.37119867  0.33249933  0.03125475  1.0
  Ni  Ni49  1  0.37119867  0.66583267  0.03125475  1.0
  Ni  Ni50  1  0.37119867  0.99916600  0.03125475  1.0
  Ni  Ni51  1  0.70453200  0.33249933  0.03125475  1.0
  Ni  Ni52  1  0.70453200  0.66583267  0.03125475  1.0
  Ni  Ni53  1  0.70453200  0.99916600  0.03125475  1.0
  Ni  Ni54  1  0.06697567  0.25000000  0.21950975  1.0
  Ni  Ni55  1  0.06697567  0.58333333  0.21950975  1.0
  Ni  Ni56  1  0.06697567  0.91666667  0.21950975  1.0
  Ni  Ni57  1  0.40030900  0.25000000  0.21950975  1.0
  Ni  Ni58  1  0.40030900  0.58333333  0.21950975  1.0
  Ni  Ni59  1  0.40030900  0.91666667  0.21950975  1.0
  Ni  Ni60  1  0.73364233  0.25000000  0.21950975  1.0
  Ni  Ni61  1  0.73364233  0.58333333  0.21950975  1.0
  Ni  Ni62  1  0.73364233  0.91666667  0.21950975  1.0
  Ni  Ni63  1  0.29546800  0.16583267  0.09454975  1.0
  Ni  Ni64  1  0.29546800  0.49916600  0.09454975  1.0
  Ni  Ni65  1  0.29546800  0.83249933  0.09454975  1.0
  Ni  Ni66  1  0.62880133  0.16583267  0.09454975  1.0
  Ni  Ni67  1  0.62880133  0.49916600  0.09454975  1.0
  Ni  Ni68  1  0.62880133  0.83249933  0.09454975  1.0
  Ni  Ni69  1  0.96213467  0.16583267  0.09454975  1.0
  Ni  Ni70  1  0.96213467  0.49916600  0.09454975  1.0
  Ni  Ni71  1  0.96213467  0.83249933  0.09454975  1.0
  Ni  Ni72  1  0.12263533  0.25000000  0.09388375  1.0
  Ni  Ni73  1  0.12263533  0.58333333  0.09388375  1.0
  Ni  Ni74  1  0.12263533  0.91666667  0.09388375  1.0
  Ni  Ni75  1  0.45596867  0.25000000  0.09388375  1.0
  Ni  Ni76  1  0.45596867  0.58333333  0.09388375  1.0
  Ni  Ni77  1  0.45596867  0.91666667  0.09388375  1.0
  Ni  Ni78  1  0.78930200  0.25000000  0.09388375  1.0
  Ni  Ni79  1  0.78930200  0.58333333  0.09388375  1.0
  Ni  Ni80  1  0.78930200  0.91666667  0.09388375  1.0
  Ni  Ni81  1  0.23490567  0.16710100  0.21874525  1.0
  Ni  Ni82  1  0.23490567  0.50043433  0.21874525  1.0
  Ni  Ni83  1  0.23490567  0.83376767  0.21874525  1.0
  Ni  Ni84  1  0.56823900  0.16710100  0.21874525  1.0
  Ni  Ni85  1  0.56823900  0.50043433  0.21874525  1.0
  Ni  Ni86  1  0.56823900  0.83376767  0.21874525  1.0
  Ni  Ni87  1  0.90157233  0.16710100  0.21874525  1.0
  Ni  Ni88  1  0.90157233  0.50043433  0.21874525  1.0
  Ni  Ni89  1  0.90157233  0.83376767  0.21874525  1.0
  Ni  Ni90  1  0.21069800  0.08333333  0.03192075  1.0
  Ni  Ni91  1  0.21069800  0.41666667  0.03192075  1.0
  Ni  Ni92  1  0.21069800  0.75000000  0.03192075  1.0
  Ni  Ni93  1  0.54403133  0.08333333  0.03192075  1.0
  Ni  Ni94  1  0.54403133  0.41666667  0.03192075  1.0
  Ni  Ni95  1  0.54403133  0.75000000  0.03192075  1.0
  Ni  Ni96  1  0.87736467  0.08333333  0.03192075  1.0
  Ni  Ni97  1  0.87736467  0.41666667  0.03192075  1.0
  Ni  Ni98  1  0.87736467  0.75000000  0.03192075  1.0
  Ni  Ni99  1  0.09842767  0.00043433  0.15705925  1.0
  Ni  Ni100  1  0.09842767  0.33376767  0.15705925  1.0
  Ni  Ni101  1  0.09842767  0.66710100  0.15705925  1.0
  Ni  Ni102  1  0.43176100  0.00043433  0.15705925  1.0
  Ni  Ni103  1  0.43176100  0.33376767  0.15705925  1.0
  Ni  Ni104  1  0.43176100  0.66710100  0.15705925  1.0
  Ni  Ni105  1  0.76509433  0.00043433  0.15705925  1.0
  Ni  Ni106  1  0.76509433  0.33376767  0.15705925  1.0
  Ni  Ni107  1  0.76509433  0.66710100  0.15705925  1.0
  Ni  Ni108  1  0.09842767  0.16623233  0.15705925  1.0
  Ni  Ni109  1  0.09842767  0.49956567  0.15705925  1.0
  Ni  Ni110  1  0.09842767  0.83289900  0.15705925  1.0
  Ni  Ni111  1  0.43176100  0.16623233  0.15705925  1.0
  Ni  Ni112  1  0.43176100  0.49956567  0.15705925  1.0
  Ni  Ni113  1  0.43176100  0.83289900  0.15705925  1.0
  Ni  Ni114  1  0.76509433  0.16623233  0.15705925  1.0
  Ni  Ni115  1  0.76509433  0.49956567  0.15705925  1.0
  Ni  Ni116  1  0.76509433  0.83289900  0.15705925  1.0
  Ni  Ni117  1  0.29546800  0.00083400  0.09454975  1.0
  Ni  Ni118  1  0.29546800  0.33416733  0.09454975  1.0
  Ni  Ni119  1  0.29546800  0.66750067  0.09454975  1.0
  Ni  Ni120  1  0.62880133  0.00083400  0.09454975  1.0
  Ni  Ni121  1  0.62880133  0.33416733  0.09454975  1.0
  Ni  Ni122  1  0.62880133  0.66750067  0.09454975  1.0
  Ni  Ni123  1  0.96213467  0.00083400  0.09454975  1.0
  Ni  Ni124  1  0.96213467  0.33416733  0.09454975  1.0
  Ni  Ni125  1  0.96213467  0.66750067  0.09454975  1.0
  Ni  Ni126  1  0.26635767  0.08333333  0.15629475  1.0
  Ni  Ni127  1  0.26635767  0.41666667  0.15629475  1.0
  Ni  Ni128  1  0.26635767  0.75000000  0.15629475  1.0
  Ni  Ni129  1  0.59969100  0.08333333  0.15629475  1.0
  Ni  Ni130  1  0.59969100  0.41666667  0.15629475  1.0
  Ni  Ni131  1  0.59969100  0.75000000  0.15629475  1.0
  Ni  Ni132  1  0.93302433  0.08333333  0.15629475  1.0
  Ni  Ni133  1  0.93302433  0.41666667  0.15629475  1.0
  Ni  Ni134  1  0.93302433  0.75000000  0.15629475  1.0
  Ni  Ni135  1  0.03786533  0.16750067  0.03125475  1.0
  Ni  Ni136  1  0.03786533  0.50083400  0.03125475  1.0
  Ni  Ni137  1  0.03786533  0.83416733  0.03125475  1.0
  Ni  Ni138  1  0.37119867  0.16750067  0.03125475  1.0
  Ni  Ni139  1  0.37119867  0.50083400  0.03125475  1.0
  Ni  Ni140  1  0.37119867  0.83416733  0.03125475  1.0
  Ni  Ni141  1  0.70453200  0.16750067  0.03125475  1.0
  Ni  Ni142  1  0.70453200  0.50083400  0.03125475  1.0
  Ni  Ni143  1  0.70453200  0.83416733  0.03125475  1.0
  Ta  Ta144  1  0.20394833  0.25000000  0.28244075  1.0
  Ta  Ta145  1  0.20394833  0.58333333  0.28244075  1.0
  Ta  Ta146  1  0.20394833  0.91666667  0.28244075  1.0
  Ta  Ta147  1  0.53728167  0.25000000  0.28244075  1.0
  Ta  Ta148  1  0.53728167  0.58333333  0.28244075  1.0
  Ta  Ta149  1  0.53728167  0.91666667  0.28244075  1.0
  Ta  Ta150  1  0.87061500  0.25000000  0.28244075  1.0
  Ta  Ta151  1  0.87061500  0.58333333  0.28244075  1.0
  Ta  Ta152  1  0.87061500  0.91666667  0.28244075  1.0
  Ta  Ta153  1  0.12938500  0.08333333  0.34336375  1.0
  Ta  Ta154  1  0.12938500  0.41666667  0.34336375  1.0
  Ta  Ta155  1  0.12938500  0.75000000  0.34336375  1.0
  Ta  Ta156  1  0.46271833  0.08333333  0.34336375  1.0
  Ta  Ta157  1  0.46271833  0.41666667  0.34336375  1.0
  Ta  Ta158  1  0.46271833  0.75000000  0.34336375  1.0
  Ta  Ta159  1  0.79605167  0.08333333  0.34336375  1.0
  Ta  Ta160  1  0.79605167  0.41666667  0.34336375  1.0
  Ta  Ta161  1  0.79605167  0.75000000  0.34336375  1.0
  Ta  Ta162  1  0.26342800  0.25000000  0.40600250  1.0
  Ta  Ta163  1  0.26342800  0.58333333  0.40600250  1.0
  Ta  Ta164  1  0.26342800  0.91666667  0.40600250  1.0
  Ta  Ta165  1  0.59676133  0.25000000  0.40600250  1.0
  Ta  Ta166  1  0.59676133  0.58333333  0.40600250  1.0
  Ta  Ta167  1  0.59676133  0.91666667  0.40600250  1.0
  Ta  Ta168  1  0.93009467  0.25000000  0.40600250  1.0
  Ta  Ta169  1  0.93009467  0.58333333  0.40600250  1.0
  Ta  Ta170  1  0.93009467  0.91666667  0.40600250  1.0
  Ta  Ta171  1  0.06990533  0.08333333  0.46980200  1.0
  Ta  Ta172  1  0.06990533  0.41666667  0.46980200  1.0
  Ta  Ta173  1  0.06990533  0.75000000  0.46980200  1.0
  Ta  Ta174  1  0.40323867  0.08333333  0.46980200  1.0
  Ta  Ta175  1  0.40323867  0.41666667  0.46980200  1.0
  Ta  Ta176  1  0.40323867  0.75000000  0.46980200  1.0
  Ta  Ta177  1  0.73657200  0.08333333  0.46980200  1.0
  Ta  Ta178  1  0.73657200  0.41666667  0.46980200  1.0
  Ta  Ta179  1  0.73657200  0.75000000  0.46980200  1.0
  Ni  Ni180  1  0.23490567  0.33289900  0.46874525  1.0
  Ni  Ni181  1  0.23490567  0.66623233  0.46874525  1.0
  Ni  Ni182  1  0.23490567  0.99956567  0.46874525  1.0
  Ni  Ni183  1  0.56823900  0.33289900  0.46874525  1.0
  Ni  Ni184  1  0.56823900  0.66623233  0.46874525  1.0
  Ni  Ni185  1  0.56823900  0.99956567  0.46874525  1.0
  Ni  Ni186  1  0.90157233  0.33289900  0.46874525  1.0
  Ni  Ni187  1  0.90157233  0.66623233  0.46874525  1.0
  Ni  Ni188  1  0.90157233  0.99956567  0.46874525  1.0
  Ni  Ni189  1  0.03786533  0.33249933  0.28125475  1.0
  Ni  Ni190  1  0.03786533  0.66583267  0.28125475  1.0
  Ni  Ni191  1  0.03786533  0.99916600  0.28125475  1.0
  Ni  Ni192  1  0.37119867  0.33249933  0.28125475  1.0
  Ni  Ni193  1  0.37119867  0.66583267  0.28125475  1.0
  Ni  Ni194  1  0.37119867  0.99916600  0.28125475  1.0
  Ni  Ni195  1  0.70453200  0.33249933  0.28125475  1.0
  Ni  Ni196  1  0.70453200  0.66583267  0.28125475  1.0
  Ni  Ni197  1  0.70453200  0.99916600  0.28125475  1.0
  Ni  Ni198  1  0.06697567  0.25000000  0.46950975  1.0
  Ni  Ni199  1  0.06697567  0.58333333  0.46950975  1.0
  Ni  Ni200  1  0.06697567  0.91666667  0.46950975  1.0
  Ni  Ni201  1  0.40030900  0.25000000  0.46950975  1.0
  Ni  Ni202  1  0.40030900  0.58333333  0.46950975  1.0
  Ni  Ni203  1  0.40030900  0.91666667  0.46950975  1.0
  Ni  Ni204  1  0.73364233  0.25000000  0.46950975  1.0
  Ni  Ni205  1  0.73364233  0.58333333  0.46950975  1.0
  Ni  Ni206  1  0.73364233  0.91666667  0.46950975  1.0
  Ni  Ni207  1  0.29546800  0.16583267  0.34454975  1.0
  Ni  Ni208  1  0.29546800  0.49916600  0.34454975  1.0
  Ni  Ni209  1  0.29546800  0.83249933  0.34454975  1.0
  Ni  Ni210  1  0.62880133  0.16583267  0.34454975  1.0
  Ni  Ni211  1  0.62880133  0.49916600  0.34454975  1.0
  Ni  Ni212  1  0.62880133  0.83249933  0.34454975  1.0
  Ni  Ni213  1  0.96213467  0.16583267  0.34454975  1.0
  Ni  Ni214  1  0.96213467  0.49916600  0.34454975  1.0
  Ni  Ni215  1  0.96213467  0.83249933  0.34454975  1.0
  Ni  Ni216  1  0.12263533  0.25000000  0.34388375  1.0
  Ni  Ni217  1  0.12263533  0.58333333  0.34388375  1.0
  Ni  Ni218  1  0.12263533  0.91666667  0.34388375  1.0
  Ni  Ni219  1  0.45596867  0.25000000  0.34388375  1.0
  Ni  Ni220  1  0.45596867  0.58333333  0.34388375  1.0
  Ni  Ni221  1  0.45596867  0.91666667  0.34388375  1.0
  Ni  Ni222  1  0.78930200  0.25000000  0.34388375  1.0
  Ni  Ni223  1  0.78930200  0.58333333  0.34388375  1.0
  Ni  Ni224  1  0.78930200  0.91666667  0.34388375  1.0
  Ni  Ni225  1  0.23490567  0.16710100  0.46874525  1.0
  Ni  Ni226  1  0.23490567  0.50043433  0.46874525  1.0
  Ni  Ni227  1  0.23490567  0.83376767  0.46874525  1.0
  Ni  Ni228  1  0.56823900  0.16710100  0.46874525  1.0
  Ni  Ni229  1  0.56823900  0.50043433  0.46874525  1.0
  Ni  Ni230  1  0.56823900  0.83376767  0.46874525  1.0
  Ni  Ni231  1  0.90157233  0.16710100  0.46874525  1.0
  Ni  Ni232  1  0.90157233  0.50043433  0.46874525  1.0
  Ni  Ni233  1  0.90157233  0.83376767  0.46874525  1.0
  Ni  Ni234  1  0.21069800  0.08333333  0.28192075  1.0
  Ni  Ni235  1  0.21069800  0.41666667  0.28192075  1.0
  Ni  Ni236  1  0.21069800  0.75000000  0.28192075  1.0
  Ni  Ni237  1  0.54403133  0.08333333  0.28192075  1.0
  Ni  Ni238  1  0.54403133  0.41666667  0.28192075  1.0
  Ni  Ni239  1  0.54403133  0.75000000  0.28192075  1.0
  Ni  Ni240  1  0.87736467  0.08333333  0.28192075  1.0
  Ni  Ni241  1  0.87736467  0.41666667  0.28192075  1.0
  Ni  Ni242  1  0.87736467  0.75000000  0.28192075  1.0
  Ni  Ni243  1  0.09842767  0.00043433  0.40705925  1.0
  Ni  Ni244  1  0.09842767  0.33376767  0.40705925  1.0
  Ni  Ni245  1  0.09842767  0.66710100  0.40705925  1.0
  Ni  Ni246  1  0.43176100  0.00043433  0.40705925  1.0
  Ni  Ni247  1  0.43176100  0.33376767  0.40705925  1.0
  Ni  Ni248  1  0.43176100  0.66710100  0.40705925  1.0
  Ni  Ni249  1  0.76509433  0.00043433  0.40705925  1.0
  Ni  Ni250  1  0.76509433  0.33376767  0.40705925  1.0
  Ni  Ni251  1  0.76509433  0.66710100  0.40705925  1.0
  Ni  Ni252  1  0.09842767  0.16623233  0.40705925  1.0
  Ni  Ni253  1  0.09842767  0.49956567  0.40705925  1.0
  Ni  Ni254  1  0.09842767  0.83289900  0.40705925  1.0
  Ni  Ni255  1  0.43176100  0.16623233  0.40705925  1.0
  Ni  Ni256  1  0.43176100  0.49956567  0.40705925  1.0
  Ni  Ni257  1  0.43176100  0.83289900  0.40705925  1.0
  Ni  Ni258  1  0.76509433  0.16623233  0.40705925  1.0
  Ni  Ni259  1  0.76509433  0.49956567  0.40705925  1.0
  Ni  Ni260  1  0.76509433  0.83289900  0.40705925  1.0
  Ni  Ni261  1  0.29546800  0.00083400  0.34454975  1.0
  Ni  Ni262  1  0.29546800  0.33416733  0.34454975  1.0
  Ni  Ni263  1  0.29546800  0.66750067  0.34454975  1.0
  Ni  Ni264  1  0.62880133  0.00083400  0.34454975  1.0
  Ni  Ni265  1  0.62880133  0.33416733  0.34454975  1.0
  Ni  Ni266  1  0.62880133  0.66750067  0.34454975  1.0
  Ni  Ni267  1  0.96213467  0.00083400  0.34454975  1.0
  Ni  Ni268  1  0.96213467  0.33416733  0.34454975  1.0
  Ni  Ni269  1  0.96213467  0.66750067  0.34454975  1.0
  Ni  Ni270  1  0.26635767  0.08333333  0.40629475  1.0
  Ni  Ni271  1  0.26635767  0.41666667  0.40629475  1.0
  Ni  Ni272  1  0.26635767  0.75000000  0.40629475  1.0
  Ni  Ni273  1  0.59969100  0.08333333  0.40629475  1.0
  Ni  Ni274  1  0.59969100  0.41666667  0.40629475  1.0
  Ni  Ni275  1  0.59969100  0.75000000  0.40629475  1.0
  Ni  Ni276  1  0.93302433  0.08333333  0.40629475  1.0
  Ni  Ni277  1  0.93302433  0.41666667  0.40629475  1.0
  Ni  Ni278  1  0.93302433  0.75000000  0.40629475  1.0
  Ni  Ni279  1  0.03786533  0.16750067  0.28125475  1.0
  Ni  Ni280  1  0.03786533  0.50083400  0.28125475  1.0
  Ni  Ni281  1  0.03786533  0.83416733  0.28125475  1.0
  Ni  Ni282  1  0.37119867  0.16750067  0.28125475  1.0
  Ni  Ni283  1  0.37119867  0.50083400  0.28125475  1.0
  Ni  Ni284  1  0.37119867  0.83416733  0.28125475  1.0
  Ni  Ni285  1  0.70453200  0.16750067  0.28125475  1.0
  Ni  Ni286  1  0.70453200  0.50083400  0.28125475  1.0
  Ni  Ni287  1  0.70453200  0.83416733  0.28125475  1.0
