# generated using pymatgen
data_TaNi3
_symmetry_space_group_name_H-M   'P 1'
_cell_length_a   12.73890300
_cell_length_b   20.50780641
_cell_length_c   36.34023200
_cell_angle_alpha   131.64453763
_cell_angle_beta   90.00000000
_cell_angle_gamma   90.00000000
_symmetry_Int_Tables_number   1
_chemical_formula_structural   TaNi3
_chemical_formula_sum   'Ta54 Ni162'
_cell_volume   7094.52505389
_cell_formula_units_Z   54
loop_
 _symmetry_equiv_pos_site_id
 _symmetry_equiv_pos_as_xyz
  1  'x, y, z'
loop_
 _atom_site_type_symbol
 _atom_site_label
 _atom_site_symmetry_multiplicity
 _atom_site_fract_x
 _atom_site_fract_y
 _atom_site_fract_z
 _atom_site_occupancy
  Ta  Ta0  1  0.00000000  0.00000000  0.02850431  1.0
  Ta  Ta1  1  0.00000000  0.33333333  0.02850431  1.0
  Ta  Ta2  1  0.00000000  0.66666667  0.02850431  1.0
  Ta  Ta3  1  0.33333333  0.00000000  0.02850431  1.0
  Ta  Ta4  1  0.33333333  0.33333333  0.02850431  1.0
  Ta  Ta5  1  0.33333333  0.66666667  0.02850431  1.0
  Ta  Ta6  1  0.66666667  0.00000000  0.02850431  1.0
  Ta  Ta7  1  0.66666667  0.33333333  0.02850431  1.0
  Ta  Ta8  1  0.66666667  0.66666667  0.02850431  1.0
  Ta  Ta9  1  0.16666667  0.16666667  0.00375856  1.0
  Ta  Ta10  1  0.16666667  0.50000000  0.00375856  1.0
  Ta  Ta11  1  0.16666667  0.83333333  0.00375856  1.0
  Ta  Ta12  1  0.50000000  0.16666667  0.00375856  1.0
  Ta  Ta13  1  0.50000000  0.50000000  0.00375856  1.0
  Ta  Ta14  1  0.50000000  0.83333333  0.00375856  1.0
  Ta  Ta15  1  0.83333333  0.16666667  0.00375856  1.0
  Ta  Ta16  1  0.83333333  0.50000000  0.00375856  1.0
  Ta  Ta17  1  0.83333333  0.83333333  0.00375856  1.0
  Ni  Ni18  1  0.16666667  0.00000000  0.06994881  1.0
  Ni  Ni19  1  0.16666667  0.33333333  0.06994881  1.0
  Ni  Ni20  1  0.16666667  0.66666667  0.06994881  1.0
  Ni  Ni21  1  0.50000000  0.00000000  0.06994881  1.0
  Ni  Ni22  1  0.50000000  0.33333333  0.06994881  1.0
  Ni  Ni23  1  0.50000000  0.66666667  0.06994881  1.0
  Ni  Ni24  1  0.83333333  0.00000000  0.06994881  1.0
  Ni  Ni25  1  0.83333333  0.33333333  0.06994881  1.0
  Ni  Ni26  1  0.83333333  0.66666667  0.06994881  1.0
  Ni  Ni27  1  0.00000000  0.16666667  0.08731406  1.0
  Ni  Ni28  1  0.00000000  0.50000000  0.08731406  1.0
  Ni  Ni29  1  0.00000000  0.83333333  0.08731406  1.0
  Ni  Ni30  1  0.33333333  0.16666667  0.08731406  1.0
  Ni  Ni31  1  0.33333333  0.50000000  0.08731406  1.0
  Ni  Ni32  1  0.33333333  0.83333333  0.08731406  1.0
  Ni  Ni33  1  0.66666667  0.16666667  0.08731406  1.0
  Ni  Ni34  1  0.66666667  0.50000000  0.08731406  1.0
  Ni  Ni35  1  0.66666667  0.83333333  0.08731406  1.0
  Ni  Ni36  1  0.00000000  0.25009700  0.05881419  1.0
  Ni  Ni37  1  0.00000000  0.58343033  0.05881419  1.0
  Ni  Ni38  1  0.00000000  0.91676367  0.05881419  1.0
  Ni  Ni39  1  0.33333333  0.25009700  0.05881419  1.0
  Ni  Ni40  1  0.33333333  0.58343033  0.05881419  1.0
  Ni  Ni41  1  0.33333333  0.91676367  0.05881419  1.0
  Ni  Ni42  1  0.66666667  0.25009700  0.05881419  1.0
  Ni  Ni43  1  0.66666667  0.58343033  0.05881419  1.0
  Ni  Ni44  1  0.66666667  0.91676367  0.05881419  1.0
  Ni  Ni45  1  0.16666667  0.24990300  0.09844869  1.0
  Ni  Ni46  1  0.16666667  0.58323633  0.09844869  1.0
  Ni  Ni47  1  0.16666667  0.91656967  0.09844869  1.0
  Ni  Ni48  1  0.50000000  0.24990300  0.09844869  1.0
  Ni  Ni49  1  0.50000000  0.58323633  0.09844869  1.0
  Ni  Ni50  1  0.50000000  0.91656967  0.09844869  1.0
  Ni  Ni51  1  0.83333333  0.24990300  0.09844869  1.0
  Ni  Ni52  1  0.83333333  0.58323633  0.09844869  1.0
  Ni  Ni53  1  0.83333333  0.91656967  0.09844869  1.0
  Ni  Ni54  1  0.00000000  0.08323633  0.12124144  1.0
  Ni  Ni55  1  0.00000000  0.41656967  0.12124144  1.0
  Ni  Ni56  1  0.00000000  0.74990300  0.12124144  1.0
  Ni  Ni57  1  0.33333333  0.08323633  0.12124144  1.0
  Ni  Ni58  1  0.33333333  0.41656967  0.12124144  1.0
  Ni  Ni59  1  0.33333333  0.74990300  0.12124144  1.0
  Ni  Ni60  1  0.66666667  0.08323633  0.12124144  1.0
  Ni  Ni61  1  0.66666667  0.41656967  0.12124144  1.0
  Ni  Ni62  1  0.66666667  0.74990300  0.12124144  1.0
  Ni  Ni63  1  0.16666667  0.08343033  0.03602144  1.0
  Ni  Ni64  1  0.16666667  0.41676367  0.03602144  1.0
  Ni  Ni65  1  0.16666667  0.75009700  0.03602144  1.0
  Ni  Ni66  1  0.50000000  0.08343033  0.03602144  1.0
  Ni  Ni67  1  0.50000000  0.41676367  0.03602144  1.0
  Ni  Ni68  1  0.50000000  0.75009700  0.03602144  1.0
  Ni  Ni69  1  0.83333333  0.08343033  0.03602144  1.0
  Ni  Ni70  1  0.83333333  0.41676367  0.03602144  1.0
  Ni  Ni71  1  0.83333333  0.75009700  0.03602144  1.0
  Ta  Ta72  1  0.00000000  0.00000000  0.15350431  1.0
  Ta  Ta73  1  0.00000000  0.33333333  0.15350431  1.0
  Ta  Ta74  1  0.00000000  0.66666667  0.15350431  1.0
  Ta  Ta75  1  0.33333333  0.00000000  0.15350431  1.0
  Ta  Ta76  1  0.33333333  0.33333333  0.15350431  1.0
  Ta  Ta77  1  0.33333333  0.66666667  0.15350431  1.0
  Ta  Ta78  1  0.66666667  0.00000000  0.15350431  1.0
  Ta  Ta79  1  0.66666667  0.33333333  0.15350431  1.0
  Ta  Ta80  1  0.66666667  0.66666667  0.15350431  1.0
  Ta  Ta81  1  0.16666667  0.16666667  0.12875856  1.0
  Ta  Ta82  1  0.16666667  0.50000000  0.12875856  1.0
  Ta  Ta83  1  0.16666667  0.83333333  0.12875856  1.0
  Ta  Ta84  1  0.50000000  0.16666667  0.12875856  1.0
  Ta  Ta85  1  0.50000000  0.50000000  0.12875856  1.0
  Ta  Ta86  1  0.50000000  0.83333333  0.12875856  1.0
  Ta  Ta87  1  0.83333333  0.16666667  0.12875856  1.0
  Ta  Ta88  1  0.83333333  0.50000000  0.12875856  1.0
  Ta  Ta89  1  0.83333333  0.83333333  0.12875856  1.0
  Ni  Ni90  1  0.16666667  0.00000000  0.19494881  1.0
  Ni  Ni91  1  0.16666667  0.33333333  0.19494881  1.0
  Ni  Ni92  1  0.16666667  0.66666667  0.19494881  1.0
  Ni  Ni93  1  0.50000000  0.00000000  0.19494881  1.0
  Ni  Ni94  1  0.50000000  0.33333333  0.19494881  1.0
  Ni  Ni95  1  0.50000000  0.66666667  0.19494881  1.0
  Ni  Ni96  1  0.83333333  0.00000000  0.19494881  1.0
  Ni  Ni97  1  0.83333333  0.33333333  0.19494881  1.0
  Ni  Ni98  1  0.83333333  0.66666667  0.19494881  1.0
  Ni  Ni99  1  0.00000000  0.16666667  0.21231406  1.0
  Ni  Ni100  1  0.00000000  0.50000000  0.21231406  1.0
  Ni  Ni101  1  0.00000000  0.83333333  0.21231406  1.0
  Ni  Ni102  1  0.33333333  0.16666667  0.21231406  1.0
  Ni  Ni103  1  0.33333333  0.50000000  0.21231406  1.0
  Ni  Ni104  1  0.33333333  0.83333333  0.21231406  1.0
  Ni  Ni105  1  0.66666667  0.16666667  0.21231406  1.0
  Ni  Ni106  1  0.66666667  0.50000000  0.21231406  1.0
  Ni  Ni107  1  0.66666667  0.83333333  0.21231406  1.0
  Ni  Ni108  1  0.00000000  0.25009700  0.18381419  1.0
  Ni  Ni109  1  0.00000000  0.58343033  0.18381419  1.0
  Ni  Ni110  1  0.00000000  0.91676367  0.18381419  1.0
  Ni  Ni111  1  0.33333333  0.25009700  0.18381419  1.0
  Ni  Ni112  1  0.33333333  0.58343033  0.18381419  1.0
  Ni  Ni113  1  0.33333333  0.91676367  0.18381419  1.0
  Ni  Ni114  1  0.66666667  0.25009700  0.18381419  1.0
  Ni  Ni115  1  0.66666667  0.58343033  0.18381419  1.0
  Ni  Ni116  1  0.66666667  0.91676367  0.18381419  1.0
  Ni  Ni117  1  0.16666667  0.24990300  0.22344869  1.0
  Ni  Ni118  1  0.16666667  0.58323633  0.22344869  1.0
  Ni  Ni119  1  0.16666667  0.91656967  0.22344869  1.0
  Ni  Ni120  1  0.50000000  0.24990300  0.22344869  1.0
  Ni  Ni121  1  0.50000000  0.58323633  0.22344869  1.0
  Ni  Ni122  1  0.50000000  0.91656967  0.22344869  1.0
  Ni  Ni123  1  0.83333333  0.24990300  0.22344869  1.0
  Ni  Ni124  1  0.83333333  0.58323633  0.22344869  1.0
  Ni  Ni125  1  0.83333333  0.91656967  0.22344869  1.0
  Ni  Ni126  1  0.00000000  0.08323633  0.24624144  1.0
  Ni  Ni127  1  0.00000000  0.41656967  0.24624144  1.0
  Ni  Ni128  1  0.00000000  0.74990300  0.24624144  1.0
  Ni  Ni129  1  0.33333333  0.08323633  0.24624144  1.0
  Ni  Ni130  1  0.33333333  0.41656967  0.24624144  1.0
  Ni  Ni131  1  0.33333333  0.74990300  0.24624144  1.0
  Ni  Ni132  1  0.66666667  0.08323633  0.24624144  1.0
  Ni  Ni133  1  0.66666667  0.41656967  0.24624144  1.0
  Ni  Ni134  1  0.66666667  0.74990300  0.24624144  1.0
  Ni  Ni135  1  0.16666667  0.08343033  0.16102144  1.0
  Ni  Ni136  1  0.16666667  0.41676367  0.16102144  1.0
  Ni  Ni137  1  0.16666667  0.75009700  0.16102144  1.0
  Ni  Ni138  1  0.50000000  0.08343033  0.16102144  1.0
  Ni  Ni139  1  0.50000000  0.41676367  0.16102144  1.0
  Ni  Ni140  1  0.50000000  0.75009700  0.16102144  1.0
  Ni  Ni141  1  0.83333333  0.08343033  0.16102144  1.0
  Ni  Ni142  1  0.83333333  0.41676367  0.16102144  1.0
  Ni  Ni143  1  0.83333333  0.75009700  0.16102144  1.0
  Ta  Ta144  1  0.00000000  0.00000000  0.27850431  1.0
  Ta  Ta145  1  0.00000000  0.33333333  0.27850431  1.0
  Ta  Ta146  1  0.00000000  0.66666667  0.27850431  1.0
  Ta  Ta147  1  0.33333333  0.00000000  0.27850431  1.0
  Ta  Ta148  1  0.33333333  0.33333333  0.27850431  1.0
  Ta  Ta149  1  0.33333333  0.66666667  0.27850431  1.0
  Ta  Ta150  1  0.66666667  0.00000000  0.27850431  1.0
  Ta  Ta151  1  0.66666667  0.33333333  0.27850431  1.0
  Ta  Ta152  1  0.66666667  0.66666667  0.27850431  1.0
  Ta  Ta153  1  0.16666667  0.16666667  0.25375856  1.0
  Ta  Ta154  1  0.16666667  0.50000000  0.25375856  1.0
  Ta  Ta155  1  0.16666667  0.83333333  0.25375856  1.0
  Ta  Ta156  1  0.50000000  0.16666667  0.25375856  1.0
  Ta  Ta157  1  0.50000000  0.50000000  0.25375856  1.0
  Ta  Ta158  1  0.50000000  0.83333333  0.25375856  1.0
  Ta  Ta159  1  0.83333333  0.16666667  0.25375856  1.0
  Ta  Ta160  1  0.83333333  0.50000000  0.25375856  1.0
  Ta  Ta161  1  0.83333333  0.83333333  0.25375856  1.0
  Ni  Ni162  1  0.16666667  0.00000000  0.31994881  1.0
  Ni  Ni163  1  0.16666667  0.33333333  0.31994881  1.0
  Ni  Ni164  1  0.16666667  0.66666667  0.31994881  1.0
  Ni  Ni165  1  0.50000000  0.00000000  0.31994881  1.0
  Ni  Ni166  1  0.50000000  0.33333333  0.31994881  1.0
  Ni  Ni167  1  0.50000000  0.66666667  0.31994881  1.0
  Ni  Ni168  1  0.83333333  0.00000000  0.31994881  1.0
  Ni  Ni169  1  0.83333333  0.33333333  0.31994881  1.0
  Ni  Ni170  1  0.83333333  0.66666667  0.31994881  1.0
  Ni  Ni171  1  0.00000000  0.16666667  0.33731406  1.0
  Ni  Ni172  1  0.00000000  0.50000000  0.33731406  1.0
  Ni  Ni173  1  0.00000000  0.83333333  0.33731406  1.0
  Ni  Ni174  1  0.33333333  0.16666667  0.33731406  1.0
  Ni  Ni175  1  0.33333333  0.50000000  0.33731406  1.0
  Ni  Ni176  1  0.33333333  0.83333333  0.33731406  1.0
  Ni  Ni177  1  0.66666667  0.16666667  0.33731406  1.0
  Ni  Ni178  1  0.66666667  0.50000000  0.33731406  1.0
  Ni  Ni179  1  0.66666667  0.83333333  0.33731406  1.0
  Ni  Ni180  1  0.00000000  0.25009700  0.30881419  1.0
  Ni  Ni181  1  0.00000000  0.58343033  0.30881419  1.0
  Ni  Ni182  1  0.00000000  0.91676367  0.30881419  1.0
  Ni  Ni183  1  0.33333333  0.25009700  0.30881419  1.0
  Ni  Ni184  1  0.33333333  0.58343033  0.30881419  1.0
  Ni  Ni185  1  0.33333333  0.91676367  0.30881419  1.0
  Ni  Ni186  1  0.66666667  0.25009700  0.30881419  1.0
  Ni  Ni187  1  0.66666667  0.58343033  0.30881419  1.0
  Ni  Ni188  1  0.66666667  0.91676367  0.30881419  1.0
  Ni  Ni189  1  0.16666667  0.24990300  0.34844869  1.0
  Ni  Ni190  1  0.16666667  0.58323633  0.34844869  1.0
  Ni  Ni191  1  0.16666667  0.91656967  0.34844869  1.0
  Ni  Ni192  1  0.50000000  0.24990300  0.34844869  1.0
  Ni  Ni193  1  0.50000000  0.58323633  0.34844869  1.0
  Ni  Ni194  1  0.50000000  0.91656967  0.34844869  1.0
  Ni  Ni195  1  0.83333333  0.24990300  0.34844869  1.0
  Ni  Ni196  1  0.83333333  0.58323633  0.34844869  1.0
  Ni  Ni197  1  0.83333333  0.91656967  0.34844869  1.0
  Ni  Ni198  1  0.00000000  0.08323633  0.37124144  1.0
  Ni  Ni199  1  0.00000000  0.41656967  0.37124144  1.0
  Ni  Ni200  1  0.00000000  0.74990300  0.37124144  1.0
  Ni  Ni201  1  0.33333333  0.08323633  0.37124144  1.0
  Ni  Ni202  1  0.33333333  0.41656967  0.37124144  1.0
  Ni  Ni203  1  0.33333333  0.74990300  0.37124144  1.0
  Ni  Ni204  1  0.66666667  0.08323633  0.37124144  1.0
  Ni  Ni205  1  0.66666667  0.41656967  0.37124144  1.0
  Ni  Ni206  1  0.66666667  0.74990300  0.37124144  1.0
  Ni  Ni207  1  0.16666667  0.08343033  0.28602144  1.0
  Ni  Ni208  1  0.16666667  0.41676367  0.28602144  1.0
  Ni  Ni209  1  0.16666667  0.75009700  0.28602144  1.0
  Ni  Ni210  1  0.50000000  0.08343033  0.28602144  1.0
  Ni  Ni211  1  0.50000000  0.41676367  0.28602144  1.0
  Ni  Ni212  1  0.50000000  0.75009700  0.28602144  1.0
  Ni  Ni213  1  0.83333333  0.08343033  0.28602144  1.0
  Ni  Ni214  1  0.83333333  0.41676367  0.28602144  1.0
  Ni  Ni215  1  0.83333333  0.75009700  0.28602144  1.0
