# generated using pymatgen
data_TaNi3
_symmetry_space_group_name_H-M   'P 1'
_cell_length_a   13.61864700
_cell_length_b   30.10570777
_cell_length_c   35.82177200
_cell_angle_alpha   120.66001773
_cell_angle_beta   90.00000000
_cell_angle_gamma   99.29358699
_symmetry_Int_Tables_number   1
_chemical_formula_structural   TaNi3
_chemical_formula_sum   'Ta108 Ni324'
_cell_volume   12409.14758922
_cell_formula_units_Z   108
loop_
 _symmetry_equiv_pos_site_id
 _symmetry_equiv_pos_as_xyz
  1  'x, y, z'
loop_
 _atom_site_type_symbol
 _atom_site_label
 _atom_site_symmetry_multiplicity
 _atom_site_fract_x
 _atom_site_fract_y
 _atom_site_fract_z
 _atom_site_occupancy
  Ta  Ta0  1  0.12938500  0.20728200  0.12451243  1.0
  Ta  Ta1  1  0.12938500  0.54061533  0.12451243  1.0
  Ta  Ta2  1  0.12938500  0.87394867  0.12451243  1.0
  Ta  Ta3  1  0.46271833  0.20728200  0.12451243  1.0
  Ta  Ta4  1  0.46271833  0.54061533  0.12451243  1.0
  Ta  Ta5  1  0.46271833  0.87394867  0.12451243  1.0
  Ta  Ta6  1  0.79605167  0.20728200  0.12451243  1.0
  Ta  Ta7  1  0.79605167  0.54061533  0.12451243  1.0
  Ta  Ta8  1  0.79605167  0.87394867  0.12451243  1.0
  Ta  Ta9  1  0.20394833  0.12605133  0.01827071  1.0
  Ta  Ta10  1  0.20394833  0.45938467  0.01827071  1.0
  Ta  Ta11  1  0.20394833  0.79271800  0.01827071  1.0
  Ta  Ta12  1  0.53728167  0.12605133  0.01827071  1.0
  Ta  Ta13  1  0.53728167  0.45938467  0.01827071  1.0
  Ta  Ta14  1  0.53728167  0.79271800  0.01827071  1.0
  Ta  Ta15  1  0.87061500  0.12605133  0.01827071  1.0
  Ta  Ta16  1  0.87061500  0.45938467  0.01827071  1.0
  Ta  Ta17  1  0.87061500  0.79271800  0.01827071  1.0
  Ta  Ta18  1  0.06990533  0.04253300  0.05390571  1.0
  Ta  Ta19  1  0.06990533  0.37586633  0.05390571  1.0
  Ta  Ta20  1  0.06990533  0.70919967  0.05390571  1.0
  Ta  Ta21  1  0.40323867  0.04253300  0.05390571  1.0
  Ta  Ta22  1  0.40323867  0.37586633  0.05390571  1.0
  Ta  Ta23  1  0.40323867  0.70919967  0.05390571  1.0
  Ta  Ta24  1  0.73657200  0.04253300  0.05390571  1.0
  Ta  Ta25  1  0.73657200  0.37586633  0.05390571  1.0
  Ta  Ta26  1  0.73657200  0.70919967  0.05390571  1.0
  Ta  Ta27  1  0.26342800  0.29080033  0.08887743  1.0
  Ta  Ta28  1  0.26342800  0.62413367  0.08887743  1.0
  Ta  Ta29  1  0.26342800  0.95746700  0.08887743  1.0
  Ta  Ta30  1  0.59676133  0.29080033  0.08887743  1.0
  Ta  Ta31  1  0.59676133  0.62413367  0.08887743  1.0
  Ta  Ta32  1  0.59676133  0.95746700  0.08887743  1.0
  Ta  Ta33  1  0.93009467  0.29080033  0.08887743  1.0
  Ta  Ta34  1  0.93009467  0.62413367  0.08887743  1.0
  Ta  Ta35  1  0.93009467  0.95746700  0.08887743  1.0
  Ni  Ni36  1  0.09842767  0.29220933  0.12538171  1.0
  Ni  Ni37  1  0.09842767  0.62554267  0.12538171  1.0
  Ni  Ni38  1  0.09842767  0.95887600  0.12538171  1.0
  Ni  Ni39  1  0.43176100  0.29220933  0.12538171  1.0
  Ni  Ni40  1  0.43176100  0.62554267  0.12538171  1.0
  Ni  Ni41  1  0.43176100  0.95887600  0.12538171  1.0
  Ni  Ni42  1  0.76509433  0.29220933  0.12538171  1.0
  Ni  Ni43  1  0.76509433  0.62554267  0.12538171  1.0
  Ni  Ni44  1  0.76509433  0.95887600  0.12538171  1.0
  Ni  Ni45  1  0.29546800  0.20886333  0.08983329  1.0
  Ni  Ni46  1  0.29546800  0.54219667  0.08983329  1.0
  Ni  Ni47  1  0.29546800  0.87553000  0.08983329  1.0
  Ni  Ni48  1  0.62880133  0.20886333  0.08983329  1.0
  Ni  Ni49  1  0.62880133  0.54219667  0.08983329  1.0
  Ni  Ni50  1  0.62880133  0.87553000  0.08983329  1.0
  Ni  Ni51  1  0.96213467  0.20886333  0.08983329  1.0
  Ni  Ni52  1  0.96213467  0.54219667  0.08983329  1.0
  Ni  Ni53  1  0.96213467  0.87553000  0.08983329  1.0
  Ni  Ni54  1  0.26635767  0.29119000  0.01761586  1.0
  Ni  Ni55  1  0.26635767  0.62452333  0.01761586  1.0
  Ni  Ni56  1  0.26635767  0.95785667  0.01761586  1.0
  Ni  Ni57  1  0.59969100  0.29119000  0.01761586  1.0
  Ni  Ni58  1  0.59969100  0.62452333  0.01761586  1.0
  Ni  Ni59  1  0.59969100  0.95785667  0.01761586  1.0
  Ni  Ni60  1  0.93302433  0.29119000  0.01761586  1.0
  Ni  Ni61  1  0.93302433  0.62452333  0.01761586  1.0
  Ni  Ni62  1  0.93302433  0.95785667  0.01761586  1.0
  Ni  Ni63  1  0.03786533  0.12447000  0.12509329  1.0
  Ni  Ni64  1  0.03786533  0.45780333  0.12509329  1.0
  Ni  Ni65  1  0.03786533  0.79113667  0.12509329  1.0
  Ni  Ni66  1  0.37119867  0.12447000  0.12509329  1.0
  Ni  Ni67  1  0.37119867  0.45780333  0.12509329  1.0
  Ni  Ni68  1  0.37119867  0.79113667  0.12509329  1.0
  Ni  Ni69  1  0.70453200  0.12447000  0.12509329  1.0
  Ni  Ni70  1  0.70453200  0.45780333  0.12509329  1.0
  Ni  Ni71  1  0.70453200  0.79113667  0.12509329  1.0
  Ni  Ni72  1  0.21069800  0.12535800  0.08940214  1.0
  Ni  Ni73  1  0.21069800  0.45869133  0.08940214  1.0
  Ni  Ni74  1  0.21069800  0.79202467  0.08940214  1.0
  Ni  Ni75  1  0.54403133  0.12535800  0.08940214  1.0
  Ni  Ni76  1  0.54403133  0.45869133  0.08940214  1.0
  Ni  Ni77  1  0.54403133  0.79202467  0.08940214  1.0
  Ni  Ni78  1  0.87736467  0.12535800  0.08940214  1.0
  Ni  Ni79  1  0.87736467  0.45869133  0.08940214  1.0
  Ni  Ni80  1  0.87736467  0.79202467  0.08940214  1.0
  Ni  Ni81  1  0.09842767  0.29220933  0.05358086  1.0
  Ni  Ni82  1  0.09842767  0.62554267  0.05358086  1.0
  Ni  Ni83  1  0.09842767  0.95887600  0.05358086  1.0
  Ni  Ni84  1  0.43176100  0.29220933  0.05358086  1.0
  Ni  Ni85  1  0.43176100  0.62554267  0.05358086  1.0
  Ni  Ni86  1  0.43176100  0.95887600  0.05358086  1.0
  Ni  Ni87  1  0.76509433  0.29220933  0.05358086  1.0
  Ni  Ni88  1  0.76509433  0.62554267  0.05358086  1.0
  Ni  Ni89  1  0.76509433  0.95887600  0.05358086  1.0
  Ni  Ni90  1  0.12263533  0.20797533  0.05338100  1.0
  Ni  Ni91  1  0.12263533  0.54130867  0.05338100  1.0
  Ni  Ni92  1  0.12263533  0.87464200  0.05338100  1.0
  Ni  Ni93  1  0.45596867  0.20797533  0.05338100  1.0
  Ni  Ni94  1  0.45596867  0.54130867  0.05338100  1.0
  Ni  Ni95  1  0.45596867  0.87464200  0.05338100  1.0
  Ni  Ni96  1  0.78930200  0.20797533  0.05338100  1.0
  Ni  Ni97  1  0.78930200  0.54130867  0.05338100  1.0
  Ni  Ni98  1  0.78930200  0.87464200  0.05338100  1.0
  Ni  Ni99  1  0.23490567  0.04112400  0.01740143  1.0
  Ni  Ni100  1  0.23490567  0.37445733  0.01740143  1.0
  Ni  Ni101  1  0.23490567  0.70779067  0.01740143  1.0
  Ni  Ni102  1  0.56823900  0.04112400  0.01740143  1.0
  Ni  Ni103  1  0.56823900  0.37445733  0.01740143  1.0
  Ni  Ni104  1  0.56823900  0.70779067  0.01740143  1.0
  Ni  Ni105  1  0.90157233  0.04112400  0.01740143  1.0
  Ni  Ni106  1  0.90157233  0.37445733  0.01740143  1.0
  Ni  Ni107  1  0.90157233  0.70779067  0.01740143  1.0
  Ni  Ni108  1  0.23490567  0.04112400  0.08920229  1.0
  Ni  Ni109  1  0.23490567  0.37445733  0.08920229  1.0
  Ni  Ni110  1  0.23490567  0.70779067  0.08920229  1.0
  Ni  Ni111  1  0.56823900  0.04112400  0.08920229  1.0
  Ni  Ni112  1  0.56823900  0.37445733  0.08920229  1.0
  Ni  Ni113  1  0.56823900  0.70779067  0.08920229  1.0
  Ni  Ni114  1  0.90157233  0.04112400  0.08920229  1.0
  Ni  Ni115  1  0.90157233  0.37445733  0.08920229  1.0
  Ni  Ni116  1  0.90157233  0.70779067  0.08920229  1.0
  Ni  Ni117  1  0.03786533  0.12447000  0.05294986  1.0
  Ni  Ni118  1  0.03786533  0.45780333  0.05294986  1.0
  Ni  Ni119  1  0.03786533  0.79113667  0.05294986  1.0
  Ni  Ni120  1  0.37119867  0.12447000  0.05294986  1.0
  Ni  Ni121  1  0.37119867  0.45780333  0.05294986  1.0
  Ni  Ni122  1  0.37119867  0.79113667  0.05294986  1.0
  Ni  Ni123  1  0.70453200  0.12447000  0.05294986  1.0
  Ni  Ni124  1  0.70453200  0.45780333  0.05294986  1.0
  Ni  Ni125  1  0.70453200  0.79113667  0.05294986  1.0
  Ni  Ni126  1  0.06697567  0.04214333  0.12516729  1.0
  Ni  Ni127  1  0.06697567  0.37547667  0.12516729  1.0
  Ni  Ni128  1  0.06697567  0.70881000  0.12516729  1.0
  Ni  Ni129  1  0.40030900  0.04214333  0.12516729  1.0
  Ni  Ni130  1  0.40030900  0.37547667  0.12516729  1.0
  Ni  Ni131  1  0.40030900  0.70881000  0.12516729  1.0
  Ni  Ni132  1  0.73364233  0.04214333  0.12516729  1.0
  Ni  Ni133  1  0.73364233  0.37547667  0.12516729  1.0
  Ni  Ni134  1  0.73364233  0.70881000  0.12516729  1.0
  Ni  Ni135  1  0.29546800  0.20886333  0.01768986  1.0
  Ni  Ni136  1  0.29546800  0.54219667  0.01768986  1.0
  Ni  Ni137  1  0.29546800  0.87553000  0.01768986  1.0
  Ni  Ni138  1  0.62880133  0.20886333  0.01768986  1.0
  Ni  Ni139  1  0.62880133  0.54219667  0.01768986  1.0
  Ni  Ni140  1  0.62880133  0.87553000  0.01768986  1.0
  Ni  Ni141  1  0.96213467  0.20886333  0.01768986  1.0
  Ni  Ni142  1  0.96213467  0.54219667  0.01768986  1.0
  Ni  Ni143  1  0.96213467  0.87553000  0.01768986  1.0
  Ta  Ta144  1  0.12938500  0.20728200  0.26736957  1.0
  Ta  Ta145  1  0.12938500  0.54061533  0.26736957  1.0
  Ta  Ta146  1  0.12938500  0.87394867  0.26736957  1.0
  Ta  Ta147  1  0.46271833  0.20728200  0.26736957  1.0
  Ta  Ta148  1  0.46271833  0.54061533  0.26736957  1.0
  Ta  Ta149  1  0.46271833  0.87394867  0.26736957  1.0
  Ta  Ta150  1  0.79605167  0.20728200  0.26736957  1.0
  Ta  Ta151  1  0.79605167  0.54061533  0.26736957  1.0
  Ta  Ta152  1  0.79605167  0.87394867  0.26736957  1.0
  Ta  Ta153  1  0.20394833  0.12605133  0.16112786  1.0
  Ta  Ta154  1  0.20394833  0.45938467  0.16112786  1.0
  Ta  Ta155  1  0.20394833  0.79271800  0.16112786  1.0
  Ta  Ta156  1  0.53728167  0.12605133  0.16112786  1.0
  Ta  Ta157  1  0.53728167  0.45938467  0.16112786  1.0
  Ta  Ta158  1  0.53728167  0.79271800  0.16112786  1.0
  Ta  Ta159  1  0.87061500  0.12605133  0.16112786  1.0
  Ta  Ta160  1  0.87061500  0.45938467  0.16112786  1.0
  Ta  Ta161  1  0.87061500  0.79271800  0.16112786  1.0
  Ta  Ta162  1  0.06990533  0.04253300  0.19676286  1.0
  Ta  Ta163  1  0.06990533  0.37586633  0.19676286  1.0
  Ta  Ta164  1  0.06990533  0.70919967  0.19676286  1.0
  Ta  Ta165  1  0.40323867  0.04253300  0.19676286  1.0
  Ta  Ta166  1  0.40323867  0.37586633  0.19676286  1.0
  Ta  Ta167  1  0.40323867  0.70919967  0.19676286  1.0
  Ta  Ta168  1  0.73657200  0.04253300  0.19676286  1.0
  Ta  Ta169  1  0.73657200  0.37586633  0.19676286  1.0
  Ta  Ta170  1  0.73657200  0.70919967  0.19676286  1.0
  Ta  Ta171  1  0.26342800  0.29080033  0.23173457  1.0
  Ta  Ta172  1  0.26342800  0.62413367  0.23173457  1.0
  Ta  Ta173  1  0.26342800  0.95746700  0.23173457  1.0
  Ta  Ta174  1  0.59676133  0.29080033  0.23173457  1.0
  Ta  Ta175  1  0.59676133  0.62413367  0.23173457  1.0
  Ta  Ta176  1  0.59676133  0.95746700  0.23173457  1.0
  Ta  Ta177  1  0.93009467  0.29080033  0.23173457  1.0
  Ta  Ta178  1  0.93009467  0.62413367  0.23173457  1.0
  Ta  Ta179  1  0.93009467  0.95746700  0.23173457  1.0
  Ni  Ni180  1  0.09842767  0.29220933  0.26823886  1.0
  Ni  Ni181  1  0.09842767  0.62554267  0.26823886  1.0
  Ni  Ni182  1  0.09842767  0.95887600  0.26823886  1.0
  Ni  Ni183  1  0.43176100  0.29220933  0.26823886  1.0
  Ni  Ni184  1  0.43176100  0.62554267  0.26823886  1.0
  Ni  Ni185  1  0.43176100  0.95887600  0.26823886  1.0
  Ni  Ni186  1  0.76509433  0.29220933  0.26823886  1.0
  Ni  Ni187  1  0.76509433  0.62554267  0.26823886  1.0
  Ni  Ni188  1  0.76509433  0.95887600  0.26823886  1.0
  Ni  Ni189  1  0.29546800  0.20886333  0.23269043  1.0
  Ni  Ni190  1  0.29546800  0.54219667  0.23269043  1.0
  Ni  Ni191  1  0.29546800  0.87553000  0.23269043  1.0
  Ni  Ni192  1  0.62880133  0.20886333  0.23269043  1.0
  Ni  Ni193  1  0.62880133  0.54219667  0.23269043  1.0
  Ni  Ni194  1  0.62880133  0.87553000  0.23269043  1.0
  Ni  Ni195  1  0.96213467  0.20886333  0.23269043  1.0
  Ni  Ni196  1  0.96213467  0.54219667  0.23269043  1.0
  Ni  Ni197  1  0.96213467  0.87553000  0.23269043  1.0
  Ni  Ni198  1  0.26635767  0.29119000  0.16047300  1.0
  Ni  Ni199  1  0.26635767  0.62452333  0.16047300  1.0
  Ni  Ni200  1  0.26635767  0.95785667  0.16047300  1.0
  Ni  Ni201  1  0.59969100  0.29119000  0.16047300  1.0
  Ni  Ni202  1  0.59969100  0.62452333  0.16047300  1.0
  Ni  Ni203  1  0.59969100  0.95785667  0.16047300  1.0
  Ni  Ni204  1  0.93302433  0.29119000  0.16047300  1.0
  Ni  Ni205  1  0.93302433  0.62452333  0.16047300  1.0
  Ni  Ni206  1  0.93302433  0.95785667  0.16047300  1.0
  Ni  Ni207  1  0.03786533  0.12447000  0.26795043  1.0
  Ni  Ni208  1  0.03786533  0.45780333  0.26795043  1.0
  Ni  Ni209  1  0.03786533  0.79113667  0.26795043  1.0
  Ni  Ni210  1  0.37119867  0.12447000  0.26795043  1.0
  Ni  Ni211  1  0.37119867  0.45780333  0.26795043  1.0
  Ni  Ni212  1  0.37119867  0.79113667  0.26795043  1.0
  Ni  Ni213  1  0.70453200  0.12447000  0.26795043  1.0
  Ni  Ni214  1  0.70453200  0.45780333  0.26795043  1.0
  Ni  Ni215  1  0.70453200  0.79113667  0.26795043  1.0
  Ni  Ni216  1  0.21069800  0.12535800  0.23225929  1.0
  Ni  Ni217  1  0.21069800  0.45869133  0.23225929  1.0
  Ni  Ni218  1  0.21069800  0.79202467  0.23225929  1.0
  Ni  Ni219  1  0.54403133  0.12535800  0.23225929  1.0
  Ni  Ni220  1  0.54403133  0.45869133  0.23225929  1.0
  Ni  Ni221  1  0.54403133  0.79202467  0.23225929  1.0
  Ni  Ni222  1  0.87736467  0.12535800  0.23225929  1.0
  Ni  Ni223  1  0.87736467  0.45869133  0.23225929  1.0
  Ni  Ni224  1  0.87736467  0.79202467  0.23225929  1.0
  Ni  Ni225  1  0.09842767  0.29220933  0.19643800  1.0
  Ni  Ni226  1  0.09842767  0.62554267  0.19643800  1.0
  Ni  Ni227  1  0.09842767  0.95887600  0.19643800  1.0
  Ni  Ni228  1  0.43176100  0.29220933  0.19643800  1.0
  Ni  Ni229  1  0.43176100  0.62554267  0.19643800  1.0
  Ni  Ni230  1  0.43176100  0.95887600  0.19643800  1.0
  Ni  Ni231  1  0.76509433  0.29220933  0.19643800  1.0
  Ni  Ni232  1  0.76509433  0.62554267  0.19643800  1.0
  Ni  Ni233  1  0.76509433  0.95887600  0.19643800  1.0
  Ni  Ni234  1  0.12263533  0.20797533  0.19623814  1.0
  Ni  Ni235  1  0.12263533  0.54130867  0.19623814  1.0
  Ni  Ni236  1  0.12263533  0.87464200  0.19623814  1.0
  Ni  Ni237  1  0.45596867  0.20797533  0.19623814  1.0
  Ni  Ni238  1  0.45596867  0.54130867  0.19623814  1.0
  Ni  Ni239  1  0.45596867  0.87464200  0.19623814  1.0
  Ni  Ni240  1  0.78930200  0.20797533  0.19623814  1.0
  Ni  Ni241  1  0.78930200  0.54130867  0.19623814  1.0
  Ni  Ni242  1  0.78930200  0.87464200  0.19623814  1.0
  Ni  Ni243  1  0.23490567  0.04112400  0.16025857  1.0
  Ni  Ni244  1  0.23490567  0.37445733  0.16025857  1.0
  Ni  Ni245  1  0.23490567  0.70779067  0.16025857  1.0
  Ni  Ni246  1  0.56823900  0.04112400  0.16025857  1.0
  Ni  Ni247  1  0.56823900  0.37445733  0.16025857  1.0
  Ni  Ni248  1  0.56823900  0.70779067  0.16025857  1.0
  Ni  Ni249  1  0.90157233  0.04112400  0.16025857  1.0
  Ni  Ni250  1  0.90157233  0.37445733  0.16025857  1.0
  Ni  Ni251  1  0.90157233  0.70779067  0.16025857  1.0
  Ni  Ni252  1  0.23490567  0.04112400  0.23205943  1.0
  Ni  Ni253  1  0.23490567  0.37445733  0.23205943  1.0
  Ni  Ni254  1  0.23490567  0.70779067  0.23205943  1.0
  Ni  Ni255  1  0.56823900  0.04112400  0.23205943  1.0
  Ni  Ni256  1  0.56823900  0.37445733  0.23205943  1.0
  Ni  Ni257  1  0.56823900  0.70779067  0.23205943  1.0
  Ni  Ni258  1  0.90157233  0.04112400  0.23205943  1.0
  Ni  Ni259  1  0.90157233  0.37445733  0.23205943  1.0
  Ni  Ni260  1  0.90157233  0.70779067  0.23205943  1.0
  Ni  Ni261  1  0.03786533  0.12447000  0.19580700  1.0
  Ni  Ni262  1  0.03786533  0.45780333  0.19580700  1.0
  Ni  Ni263  1  0.03786533  0.79113667  0.19580700  1.0
  Ni  Ni264  1  0.37119867  0.12447000  0.19580700  1.0
  Ni  Ni265  1  0.37119867  0.45780333  0.19580700  1.0
  Ni  Ni266  1  0.37119867  0.79113667  0.19580700  1.0
  Ni  Ni267  1  0.70453200  0.12447000  0.19580700  1.0
  Ni  Ni268  1  0.70453200  0.45780333  0.19580700  1.0
  Ni  Ni269  1  0.70453200  0.79113667  0.19580700  1.0
  Ni  Ni270  1  0.06697567  0.04214333  0.26802443  1.0
  Ni  Ni271  1  0.06697567  0.37547667  0.26802443  1.0
  Ni  Ni272  1  0.06697567  0.70881000  0.26802443  1.0
  Ni  Ni273  1  0.40030900  0.04214333  0.26802443  1.0
  Ni  Ni274  1  0.40030900  0.37547667  0.26802443  1.0
  Ni  Ni275  1  0.40030900  0.70881000  0.26802443  1.0
  Ni  Ni276  1  0.73364233  0.04214333  0.26802443  1.0
  Ni  Ni277  1  0.73364233  0.37547667  0.26802443  1.0
  Ni  Ni278  1  0.73364233  0.70881000  0.26802443  1.0
  Ni  Ni279  1  0.29546800  0.20886333  0.16054700  1.0
  Ni  Ni280  1  0.29546800  0.54219667  0.16054700  1.0
  Ni  Ni281  1  0.29546800  0.87553000  0.16054700  1.0
  Ni  Ni282  1  0.62880133  0.20886333  0.16054700  1.0
  Ni  Ni283  1  0.62880133  0.54219667  0.16054700  1.0
  Ni  Ni284  1  0.62880133  0.87553000  0.16054700  1.0
  Ni  Ni285  1  0.96213467  0.20886333  0.16054700  1.0
  Ni  Ni286  1  0.96213467  0.54219667  0.16054700  1.0
  Ni  Ni287  1  0.96213467  0.87553000  0.16054700  1.0
  Ta  Ta288  1  0.12938500  0.20728200  0.41022671  1.0
  Ta  Ta289  1  0.12938500  0.54061533  0.41022671  1.0
  Ta  Ta290  1  0.12938500  0.87394867  0.41022671  1.0
  Ta  Ta291  1  0.46271833  0.20728200  0.41022671  1.0
  Ta  Ta292  1  0.46271833  0.54061533  0.41022671  1.0
  Ta  Ta293  1  0.46271833  0.87394867  0.41022671  1.0
  Ta  Ta294  1  0.79605167  0.20728200  0.41022671  1.0
  Ta  Ta295  1  0.79605167  0.54061533  0.41022671  1.0
  Ta  Ta296  1  0.79605167  0.87394867  0.41022671  1.0
  Ta  Ta297  1  0.20394833  0.12605133  0.30398500  1.0
  Ta  Ta298  1  0.20394833  0.45938467  0.30398500  1.0
  Ta  Ta299  1  0.20394833  0.79271800  0.30398500  1.0
  Ta  Ta300  1  0.53728167  0.12605133  0.30398500  1.0
  Ta  Ta301  1  0.53728167  0.45938467  0.30398500  1.0
  Ta  Ta302  1  0.53728167  0.79271800  0.30398500  1.0
  Ta  Ta303  1  0.87061500  0.12605133  0.30398500  1.0
  Ta  Ta304  1  0.87061500  0.45938467  0.30398500  1.0
  Ta  Ta305  1  0.87061500  0.79271800  0.30398500  1.0
  Ta  Ta306  1  0.06990533  0.04253300  0.33962000  1.0
  Ta  Ta307  1  0.06990533  0.37586633  0.33962000  1.0
  Ta  Ta308  1  0.06990533  0.70919967  0.33962000  1.0
  Ta  Ta309  1  0.40323867  0.04253300  0.33962000  1.0
  Ta  Ta310  1  0.40323867  0.37586633  0.33962000  1.0
  Ta  Ta311  1  0.40323867  0.70919967  0.33962000  1.0
  Ta  Ta312  1  0.73657200  0.04253300  0.33962000  1.0
  Ta  Ta313  1  0.73657200  0.37586633  0.33962000  1.0
  Ta  Ta314  1  0.73657200  0.70919967  0.33962000  1.0
  Ta  Ta315  1  0.26342800  0.29080033  0.37459171  1.0
  Ta  Ta316  1  0.26342800  0.62413367  0.37459171  1.0
  Ta  Ta317  1  0.26342800  0.95746700  0.37459171  1.0
  Ta  Ta318  1  0.59676133  0.29080033  0.37459171  1.0
  Ta  Ta319  1  0.59676133  0.62413367  0.37459171  1.0
  Ta  Ta320  1  0.59676133  0.95746700  0.37459171  1.0
  Ta  Ta321  1  0.93009467  0.29080033  0.37459171  1.0
  Ta  Ta322  1  0.93009467  0.62413367  0.37459171  1.0
  Ta  Ta323  1  0.93009467  0.95746700  0.37459171  1.0
  Ni  Ni324  1  0.09842767  0.29220933  0.41109600  1.0
  Ni  Ni325  1  0.09842767  0.62554267  0.41109600  1.0
  Ni  Ni326  1  0.09842767  0.95887600  0.41109600  1.0
  Ni  Ni327  1  0.43176100  0.29220933  0.41109600  1.0
  Ni  Ni328  1  0.43176100  0.62554267  0.41109600  1.0
  Ni  Ni329  1  0.43176100  0.95887600  0.41109600  1.0
  Ni  Ni330  1  0.76509433  0.29220933  0.41109600  1.0
  Ni  Ni331  1  0.76509433  0.62554267  0.41109600  1.0
  Ni  Ni332  1  0.76509433  0.95887600  0.41109600  1.0
  Ni  Ni333  1  0.29546800  0.20886333  0.37554757  1.0
  Ni  Ni334  1  0.29546800  0.54219667  0.37554757  1.0
  Ni  Ni335  1  0.29546800  0.87553000  0.37554757  1.0
  Ni  Ni336  1  0.62880133  0.20886333  0.37554757  1.0
  Ni  Ni337  1  0.62880133  0.54219667  0.37554757  1.0
  Ni  Ni338  1  0.62880133  0.87553000  0.37554757  1.0
  Ni  Ni339  1  0.96213467  0.20886333  0.37554757  1.0
  Ni  Ni340  1  0.96213467  0.54219667  0.37554757  1.0
  Ni  Ni341  1  0.96213467  0.87553000  0.37554757  1.0
  Ni  Ni342  1  0.26635767  0.29119000  0.30333014  1.0
  Ni  Ni343  1  0.26635767  0.62452333  0.30333014  1.0
  Ni  Ni344  1  0.26635767  0.95785667  0.30333014  1.0
  Ni  Ni345  1  0.59969100  0.29119000  0.30333014  1.0
  Ni  Ni346  1  0.59969100  0.62452333  0.30333014  1.0
  Ni  Ni347  1  0.59969100  0.95785667  0.30333014  1.0
  Ni  Ni348  1  0.93302433  0.29119000  0.30333014  1.0
  Ni  Ni349  1  0.93302433  0.62452333  0.30333014  1.0
  Ni  Ni350  1  0.93302433  0.95785667  0.30333014  1.0
  Ni  Ni351  1  0.03786533  0.12447000  0.41080757  1.0
  Ni  Ni352  1  0.03786533  0.45780333  0.41080757  1.0
  Ni  Ni353  1  0.03786533  0.79113667  0.41080757  1.0
  Ni  Ni354  1  0.37119867  0.12447000  0.41080757  1.0
  Ni  Ni355  1  0.37119867  0.45780333  0.41080757  1.0
  Ni  Ni356  1  0.37119867  0.79113667  0.41080757  1.0
  Ni  Ni357  1  0.70453200  0.12447000  0.41080757  1.0
  Ni  Ni358  1  0.70453200  0.45780333  0.41080757  1.0
  Ni  Ni359  1  0.70453200  0.79113667  0.41080757  1.0
  Ni  Ni360  1  0.21069800  0.12535800  0.37511643  1.0
  Ni  Ni361  1  0.21069800  0.45869133  0.37511643  1.0
  Ni  Ni362  1  0.21069800  0.79202467  0.37511643  1.0
  Ni  Ni363  1  0.54403133  0.12535800  0.37511643  1.0
  Ni  Ni364  1  0.54403133  0.45869133  0.37511643  1.0
  Ni  Ni365  1  0.54403133  0.79202467  0.37511643  1.0
  Ni  Ni366  1  0.87736467  0.12535800  0.37511643  1.0
  Ni  Ni367  1  0.87736467  0.45869133  0.37511643  1.0
  Ni  Ni368  1  0.87736467  0.79202467  0.37511643  1.0
  Ni  Ni369  1  0.09842767  0.29220933  0.33929514  1.0
  Ni  Ni370  1  0.09842767  0.62554267  0.33929514  1.0
  Ni  Ni371  1  0.09842767  0.95887600  0.33929514  1.0
  Ni  Ni372  1  0.43176100  0.29220933  0.33929514  1.0
  Ni  Ni373  1  0.43176100  0.62554267  0.33929514  1.0
  Ni  Ni374  1  0.43176100  0.95887600  0.33929514  1.0
  Ni  Ni375  1  0.76509433  0.29220933  0.33929514  1.0
  Ni  Ni376  1  0.76509433  0.62554267  0.33929514  1.0
  Ni  Ni377  1  0.76509433  0.95887600  0.33929514  1.0
  Ni  Ni378  1  0.12263533  0.20797533  0.33909529  1.0
  Ni  Ni379  1  0.12263533  0.54130867  0.33909529  1.0
  Ni  Ni380  1  0.12263533  0.87464200  0.33909529  1.0
  Ni  Ni381  1  0.45596867  0.20797533  0.33909529  1.0
  Ni  Ni382  1  0.45596867  0.54130867  0.33909529  1.0
  Ni  Ni383  1  0.45596867  0.87464200  0.33909529  1.0
  Ni  Ni384  1  0.78930200  0.20797533  0.33909529  1.0
  Ni  Ni385  1  0.78930200  0.54130867  0.33909529  1.0
  Ni  Ni386  1  0.78930200  0.87464200  0.33909529  1.0
  Ni  Ni387  1  0.23490567  0.04112400  0.30311571  1.0
  Ni  Ni388  1  0.23490567  0.37445733  0.30311571  1.0
  Ni  Ni389  1  0.23490567  0.70779067  0.30311571  1.0
  Ni  Ni390  1  0.56823900  0.04112400  0.30311571  1.0
  Ni  Ni391  1  0.56823900  0.37445733  0.30311571  1.0
  Ni  Ni392  1  0.56823900  0.70779067  0.30311571  1.0
  Ni  Ni393  1  0.90157233  0.04112400  0.30311571  1.0
  Ni  Ni394  1  0.90157233  0.37445733  0.30311571  1.0
  Ni  Ni395  1  0.90157233  0.70779067  0.30311571  1.0
  Ni  Ni396  1  0.23490567  0.04112400  0.37491657  1.0
  Ni  Ni397  1  0.23490567  0.37445733  0.37491657  1.0
  Ni  Ni398  1  0.23490567  0.70779067  0.37491657  1.0
  Ni  Ni399  1  0.56823900  0.04112400  0.37491657  1.0
  Ni  Ni400  1  0.56823900  0.37445733  0.37491657  1.0
  Ni  Ni401  1  0.56823900  0.70779067  0.37491657  1.0
  Ni  Ni402  1  0.90157233  0.04112400  0.37491657  1.0
  Ni  Ni403  1  0.90157233  0.37445733  0.37491657  1.0
  Ni  Ni404  1  0.90157233  0.70779067  0.37491657  1.0
  Ni  Ni405  1  0.03786533  0.12447000  0.33866414  1.0
  Ni  Ni406  1  0.03786533  0.45780333  0.33866414  1.0
  Ni  Ni407  1  0.03786533  0.79113667  0.33866414  1.0
  Ni  Ni408  1  0.37119867  0.12447000  0.33866414  1.0
  Ni  Ni409  1  0.37119867  0.45780333  0.33866414  1.0
  Ni  Ni410  1  0.37119867  0.79113667  0.33866414  1.0
  Ni  Ni411  1  0.70453200  0.12447000  0.33866414  1.0
  Ni  Ni412  1  0.70453200  0.45780333  0.33866414  1.0
  Ni  Ni413  1  0.70453200  0.79113667  0.33866414  1.0
  Ni  Ni414  1  0.06697567  0.04214333  0.41088157  1.0
  Ni  Ni415  1  0.06697567  0.37547667  0.41088157  1.0
  Ni  Ni416  1  0.06697567  0.70881000  0.41088157  1.0
  Ni  Ni417  1  0.40030900  0.04214333  0.41088157  1.0
  Ni  Ni418  1  0.40030900  0.37547667  0.41088157  1.0
  Ni  Ni419  1  0.40030900  0.70881000  0.41088157  1.0
  Ni  Ni420  1  0.73364233  0.04214333  0.41088157  1.0
  Ni  Ni421  1  0.73364233  0.37547667  0.41088157  1.0
  Ni  Ni422  1  0.73364233  0.70881000  0.41088157  1.0
  Ni  Ni423  1  0.29546800  0.20886333  0.30340414  1.0
  Ni  Ni424  1  0.29546800  0.54219667  0.30340414  1.0
  Ni  Ni425  1  0.29546800  0.87553000  0.30340414  1.0
  Ni  Ni426  1  0.62880133  0.20886333  0.30340414  1.0
  Ni  Ni427  1  0.62880133  0.54219667  0.30340414  1.0
  Ni  Ni428  1  0.62880133  0.87553000  0.30340414  1.0
  Ni  Ni429  1  0.96213467  0.20886333  0.30340414  1.0
  Ni  Ni430  1  0.96213467  0.54219667  0.30340414  1.0
  Ni  Ni431  1  0.96213467  0.87553000  0.30340414  1.0
