# generated using pymatgen
data_TaNi2
_symmetry_space_group_name_H-M   'P 1'
_cell_length_a   9.50947799
_cell_length_b   19.13694578
_cell_length_c   28.49182303
_cell_angle_alpha   95.70690199
_cell_angle_beta   89.99999999
_cell_angle_gamma   104.38631955
_symmetry_Int_Tables_number   1
_chemical_formula_structural   TaNi2
_chemical_formula_sum   'Ta54 Ni108'
_cell_volume   4995.88518991
_cell_formula_units_Z   54
loop_
 _symmetry_equiv_pos_site_id
 _symmetry_equiv_pos_as_xyz
  1  'x, y, z'
loop_
 _atom_site_type_symbol
 _atom_site_label
 _atom_site_symmetry_multiplicity
 _atom_site_fract_x
 _atom_site_fract_y
 _atom_site_fract_z
 _atom_site_occupancy
  Ni  Ni0  1  0.21821838  0.18662360  0.10698271  1.0
  Ni  Ni1  1  0.21821838  0.51995693  0.10698271  1.0
  Ni  Ni2  1  0.21821838  0.85329026  0.10698271  1.0
  Ni  Ni3  1  0.55155171  0.18662360  0.10698271  1.0
  Ni  Ni4  1  0.55155171  0.51995693  0.10698271  1.0
  Ni  Ni5  1  0.55155171  0.85329026  0.10698271  1.0
  Ni  Ni6  1  0.88488505  0.18662360  0.10698271  1.0
  Ni  Ni7  1  0.88488505  0.51995693  0.10698271  1.0
  Ni  Ni8  1  0.88488505  0.85329026  0.10698271  1.0
  Ni  Ni9  1  0.14678981  0.04376645  0.03555414  1.0
  Ni  Ni10  1  0.14678981  0.37709979  0.03555414  1.0
  Ni  Ni11  1  0.14678981  0.71043312  0.03555414  1.0
  Ni  Ni12  1  0.48012314  0.04376645  0.03555414  1.0
  Ni  Ni13  1  0.48012314  0.37709979  0.03555414  1.0
  Ni  Ni14  1  0.48012314  0.71043312  0.03555414  1.0
  Ni  Ni15  1  0.81345648  0.04376645  0.03555414  1.0
  Ni  Ni16  1  0.81345648  0.37709979  0.03555414  1.0
  Ni  Ni17  1  0.81345648  0.71043312  0.03555414  1.0
  Ni  Ni18  1  0.25781195  0.26581074  0.03571429  1.0
  Ni  Ni19  1  0.25781195  0.59914407  0.03571429  1.0
  Ni  Ni20  1  0.25781195  0.93247740  0.03571429  1.0
  Ni  Ni21  1  0.59114529  0.26581074  0.03571429  1.0
  Ni  Ni22  1  0.59114529  0.59914407  0.03571429  1.0
  Ni  Ni23  1  0.59114529  0.93247740  0.03571429  1.0
  Ni  Ni24  1  0.92447862  0.26581074  0.03571429  1.0
  Ni  Ni25  1  0.92447862  0.59914407  0.03571429  1.0
  Ni  Ni26  1  0.92447862  0.93247740  0.03571429  1.0
  Ni  Ni27  1  0.32924052  0.07533455  0.10714286  1.0
  Ni  Ni28  1  0.32924052  0.40866788  0.10714286  1.0
  Ni  Ni29  1  0.32924052  0.74200121  0.10714286  1.0
  Ni  Ni30  1  0.66257386  0.07533455  0.10714286  1.0
  Ni  Ni31  1  0.66257386  0.40866788  0.10714286  1.0
  Ni  Ni32  1  0.66257386  0.74200121  0.10714286  1.0
  Ni  Ni33  1  0.99590719  0.07533455  0.10714286  1.0
  Ni  Ni34  1  0.99590719  0.40866788  0.10714286  1.0
  Ni  Ni35  1  0.99590719  0.74200121  0.10714286  1.0
  Ni  Ni36  1  0.02774219  0.13900455  0.24983986  1.0
  Ni  Ni37  1  0.02774219  0.47233788  0.24983986  1.0
  Ni  Ni38  1  0.02774219  0.80567121  0.24983986  1.0
  Ni  Ni39  1  0.36107552  0.13900455  0.24983986  1.0
  Ni  Ni40  1  0.36107552  0.47233788  0.24983986  1.0
  Ni  Ni41  1  0.36107552  0.80567121  0.24983986  1.0
  Ni  Ni42  1  0.69440886  0.13900455  0.24983986  1.0
  Ni  Ni43  1  0.69440886  0.47233788  0.24983986  1.0
  Ni  Ni44  1  0.69440886  0.80567121  0.24983986  1.0
  Ni  Ni45  1  0.28964695  0.32948074  0.17841129  1.0
  Ni  Ni46  1  0.28964695  0.66281407  0.17841129  1.0
  Ni  Ni47  1  0.28964695  0.99614740  0.17841129  1.0
  Ni  Ni48  1  0.62298029  0.32948074  0.17841129  1.0
  Ni  Ni49  1  0.62298029  0.66281407  0.17841129  1.0
  Ni  Ni50  1  0.62298029  0.99614740  0.17841129  1.0
  Ni  Ni51  1  0.95631362  0.32948074  0.17841129  1.0
  Ni  Ni52  1  0.95631362  0.66281407  0.17841129  1.0
  Ni  Ni53  1  0.95631362  0.99614740  0.17841129  1.0
  Ni  Ni54  1  0.06733576  0.21819169  0.17857143  1.0
  Ni  Ni55  1  0.06733576  0.55152502  0.17857143  1.0
  Ni  Ni56  1  0.06733576  0.88485836  0.17857143  1.0
  Ni  Ni57  1  0.40066910  0.21819169  0.17857143  1.0
  Ni  Ni58  1  0.40066910  0.55152502  0.17857143  1.0
  Ni  Ni59  1  0.40066910  0.88485836  0.17857143  1.0
  Ni  Ni60  1  0.73400243  0.21819169  0.17857143  1.0
  Ni  Ni61  1  0.73400243  0.55152502  0.17857143  1.0
  Ni  Ni62  1  0.73400243  0.88485836  0.17857143  1.0
  Ni  Ni63  1  0.13876433  0.02771550  0.25000000  1.0
  Ni  Ni64  1  0.13876433  0.36104883  0.25000000  1.0
  Ni  Ni65  1  0.13876433  0.69438217  0.25000000  1.0
  Ni  Ni66  1  0.47209767  0.02771550  0.25000000  1.0
  Ni  Ni67  1  0.47209767  0.36104883  0.25000000  1.0
  Ni  Ni68  1  0.47209767  0.69438217  0.25000000  1.0
  Ni  Ni69  1  0.80543100  0.02771550  0.25000000  1.0
  Ni  Ni70  1  0.80543100  0.36104883  0.25000000  1.0
  Ni  Ni71  1  0.80543100  0.69438217  0.25000000  1.0
  Ni  Ni72  1  0.17059933  0.09138550  0.39269700  1.0
  Ni  Ni73  1  0.17059933  0.42471883  0.39269700  1.0
  Ni  Ni74  1  0.17059933  0.75805217  0.39269700  1.0
  Ni  Ni75  1  0.50393267  0.09138550  0.39269700  1.0
  Ni  Ni76  1  0.50393267  0.42471883  0.39269700  1.0
  Ni  Ni77  1  0.50393267  0.75805217  0.39269700  1.0
  Ni  Ni78  1  0.83726600  0.09138550  0.39269700  1.0
  Ni  Ni79  1  0.83726600  0.42471883  0.39269700  1.0
  Ni  Ni80  1  0.83726600  0.75805217  0.39269700  1.0
  Ni  Ni81  1  0.09917076  0.28186169  0.32126843  1.0
  Ni  Ni82  1  0.09917076  0.61519502  0.32126843  1.0
  Ni  Ni83  1  0.09917076  0.94852836  0.32126843  1.0
  Ni  Ni84  1  0.43250410  0.28186169  0.32126843  1.0
  Ni  Ni85  1  0.43250410  0.61519502  0.32126843  1.0
  Ni  Ni86  1  0.43250410  0.94852836  0.32126843  1.0
  Ni  Ni87  1  0.76583743  0.28186169  0.32126843  1.0
  Ni  Ni88  1  0.76583743  0.61519502  0.32126843  1.0
  Ni  Ni89  1  0.76583743  0.94852836  0.32126843  1.0
  Ni  Ni90  1  0.21019290  0.17057264  0.32142857  1.0
  Ni  Ni91  1  0.21019290  0.50390598  0.32142857  1.0
  Ni  Ni92  1  0.21019290  0.83723931  0.32142857  1.0
  Ni  Ni93  1  0.54352624  0.17057264  0.32142857  1.0
  Ni  Ni94  1  0.54352624  0.50390598  0.32142857  1.0
  Ni  Ni95  1  0.54352624  0.83723931  0.32142857  1.0
  Ni  Ni96  1  0.87685957  0.17057264  0.32142857  1.0
  Ni  Ni97  1  0.87685957  0.50390598  0.32142857  1.0
  Ni  Ni98  1  0.87685957  0.83723931  0.32142857  1.0
  Ni  Ni99  1  0.28162148  0.31342979  0.39285714  1.0
  Ni  Ni100  1  0.28162148  0.64676312  0.39285714  1.0
  Ni  Ni101  1  0.28162148  0.98009645  0.39285714  1.0
  Ni  Ni102  1  0.61495481  0.31342979  0.39285714  1.0
  Ni  Ni103  1  0.61495481  0.64676312  0.39285714  1.0
  Ni  Ni104  1  0.61495481  0.98009645  0.39285714  1.0
  Ni  Ni105  1  0.94828814  0.31342979  0.39285714  1.0
  Ni  Ni106  1  0.94828814  0.64676312  0.39285714  1.0
  Ni  Ni107  1  0.94828814  0.98009645  0.39285714  1.0
  Ta  Ta108  1  0.03563421  0.15478860  0.03563421  1.0
  Ta  Ta109  1  0.03563421  0.48812193  0.03563421  1.0
  Ta  Ta110  1  0.03563421  0.82145526  0.03563421  1.0
  Ta  Ta111  1  0.36896755  0.15478860  0.03563421  1.0
  Ta  Ta112  1  0.36896755  0.48812193  0.03563421  1.0
  Ta  Ta113  1  0.36896755  0.82145526  0.03563421  1.0
  Ta  Ta114  1  0.70230088  0.15478860  0.03563421  1.0
  Ta  Ta115  1  0.70230088  0.48812193  0.03563421  1.0
  Ta  Ta116  1  0.70230088  0.82145526  0.03563421  1.0
  Ta  Ta117  1  0.10706279  0.29764574  0.10706279  1.0
  Ta  Ta118  1  0.10706279  0.63097907  0.10706279  1.0
  Ta  Ta119  1  0.10706279  0.96431240  0.10706279  1.0
  Ta  Ta120  1  0.44039612  0.29764574  0.10706279  1.0
  Ta  Ta121  1  0.44039612  0.63097907  0.10706279  1.0
  Ta  Ta122  1  0.44039612  0.96431240  0.10706279  1.0
  Ta  Ta123  1  0.77372945  0.29764574  0.10706279  1.0
  Ta  Ta124  1  0.77372945  0.63097907  0.10706279  1.0
  Ta  Ta125  1  0.77372945  0.96431240  0.10706279  1.0
  Ta  Ta126  1  0.17849136  0.10716955  0.17849136  1.0
  Ta  Ta127  1  0.17849136  0.44050288  0.17849136  1.0
  Ta  Ta128  1  0.17849136  0.77383621  0.17849136  1.0
  Ta  Ta129  1  0.51182469  0.10716955  0.17849136  1.0
  Ta  Ta130  1  0.51182469  0.44050288  0.17849136  1.0
  Ta  Ta131  1  0.51182469  0.77383621  0.17849136  1.0
  Ta  Ta132  1  0.84515802  0.10716955  0.17849136  1.0
  Ta  Ta133  1  0.84515802  0.44050288  0.17849136  1.0
  Ta  Ta134  1  0.84515802  0.77383621  0.17849136  1.0
  Ta  Ta135  1  0.24991993  0.25002669  0.24991993  1.0
  Ta  Ta136  1  0.24991993  0.58336002  0.24991993  1.0
  Ta  Ta137  1  0.24991993  0.91669336  0.24991993  1.0
  Ta  Ta138  1  0.58325326  0.25002669  0.24991993  1.0
  Ta  Ta139  1  0.58325326  0.58336002  0.24991993  1.0
  Ta  Ta140  1  0.58325326  0.91669336  0.24991993  1.0
  Ta  Ta141  1  0.91658660  0.25002669  0.24991993  1.0
  Ta  Ta142  1  0.91658660  0.58336002  0.24991993  1.0
  Ta  Ta143  1  0.91658660  0.91669336  0.24991993  1.0
  Ta  Ta144  1  0.32134850  0.05955050  0.32134850  1.0
  Ta  Ta145  1  0.32134850  0.39288383  0.32134850  1.0
  Ta  Ta146  1  0.32134850  0.72621717  0.32134850  1.0
  Ta  Ta147  1  0.65468183  0.05955050  0.32134850  1.0
  Ta  Ta148  1  0.65468183  0.39288383  0.32134850  1.0
  Ta  Ta149  1  0.65468183  0.72621717  0.32134850  1.0
  Ta  Ta150  1  0.98801517  0.05955050  0.32134850  1.0
  Ta  Ta151  1  0.98801517  0.39288383  0.32134850  1.0
  Ta  Ta152  1  0.98801517  0.72621717  0.32134850  1.0
  Ta  Ta153  1  0.05944374  0.20240764  0.39277707  1.0
  Ta  Ta154  1  0.05944374  0.53574098  0.39277707  1.0
  Ta  Ta155  1  0.05944374  0.86907431  0.39277707  1.0
  Ta  Ta156  1  0.39277707  0.20240764  0.39277707  1.0
  Ta  Ta157  1  0.39277707  0.53574098  0.39277707  1.0
  Ta  Ta158  1  0.39277707  0.86907431  0.39277707  1.0
  Ta  Ta159  1  0.72611040  0.20240764  0.39277707  1.0
  Ta  Ta160  1  0.72611040  0.53574098  0.39277707  1.0
  Ta  Ta161  1  0.72611040  0.86907431  0.39277707  1.0
