# generated using pymatgen
data_TaNi2
_symmetry_space_group_name_H-M   'P 1'
_cell_length_a   23.38980627
_cell_length_b   25.51507848
_cell_length_c   99.84175124
_cell_angle_alpha   159.55955921
_cell_angle_beta   89.18996110
_cell_angle_gamma   104.02691864
_symmetry_Int_Tables_number   1
_chemical_formula_structural   TaNi2
_chemical_formula_sum   'Ta162 Ni324'
_cell_volume   15701.35345401
_cell_formula_units_Z   162
loop_
 _symmetry_equiv_pos_site_id
 _symmetry_equiv_pos_as_xyz
  1  'x, y, z'
loop_
 _atom_site_type_symbol
 _atom_site_label
 _atom_site_symmetry_multiplicity
 _atom_site_fract_x
 _atom_site_fract_y
 _atom_site_fract_z
 _atom_site_occupancy
  Ta  Ta0  1  0.00000000  0.00000000  0.03411639  1.0
  Ta  Ta1  1  0.00000000  0.33333333  0.03411639  1.0
  Ta  Ta2  1  0.00000000  0.66666667  0.03411639  1.0
  Ta  Ta3  1  0.33333333  0.00000000  0.03411639  1.0
  Ta  Ta4  1  0.33333333  0.33333333  0.03411639  1.0
  Ta  Ta5  1  0.33333333  0.66666667  0.03411639  1.0
  Ta  Ta6  1  0.66666667  0.00000000  0.03411639  1.0
  Ta  Ta7  1  0.66666667  0.33333333  0.03411639  1.0
  Ta  Ta8  1  0.66666667  0.66666667  0.03411639  1.0
  Ta  Ta9  1  0.16666667  0.00000000  0.01138911  1.0
  Ta  Ta10  1  0.16666667  0.33333333  0.01138911  1.0
  Ta  Ta11  1  0.16666667  0.66666667  0.01138911  1.0
  Ta  Ta12  1  0.50000000  0.00000000  0.01138911  1.0
  Ta  Ta13  1  0.50000000  0.33333333  0.01138911  1.0
  Ta  Ta14  1  0.50000000  0.66666667  0.01138911  1.0
  Ta  Ta15  1  0.83333333  0.00000000  0.01138911  1.0
  Ta  Ta16  1  0.83333333  0.33333333  0.01138911  1.0
  Ta  Ta17  1  0.83333333  0.66666667  0.01138911  1.0
  Ni  Ni18  1  0.05561783  0.00000000  0.01141459  1.0
  Ni  Ni19  1  0.05561783  0.33333333  0.01141459  1.0
  Ni  Ni20  1  0.05561783  0.66666667  0.01141459  1.0
  Ni  Ni21  1  0.38895117  0.00000000  0.01141459  1.0
  Ni  Ni22  1  0.38895117  0.33333333  0.01141459  1.0
  Ni  Ni23  1  0.38895117  0.66666667  0.01141459  1.0
  Ni  Ni24  1  0.72228450  0.00000000  0.01141459  1.0
  Ni  Ni25  1  0.72228450  0.33333333  0.01141459  1.0
  Ni  Ni26  1  0.72228450  0.66666667  0.01141459  1.0
  Ni  Ni27  1  0.22228450  0.00000000  0.03414186  1.0
  Ni  Ni28  1  0.22228450  0.33333333  0.03414186  1.0
  Ni  Ni29  1  0.22228450  0.66666667  0.03414186  1.0
  Ni  Ni30  1  0.55561783  0.00000000  0.03414186  1.0
  Ni  Ni31  1  0.55561783  0.33333333  0.03414186  1.0
  Ni  Ni32  1  0.55561783  0.66666667  0.03414186  1.0
  Ni  Ni33  1  0.88895117  0.00000000  0.03414186  1.0
  Ni  Ni34  1  0.88895117  0.33333333  0.03414186  1.0
  Ni  Ni35  1  0.88895117  0.66666667  0.03414186  1.0
  Ni  Ni36  1  0.11104883  0.00000000  0.03409091  1.0
  Ni  Ni37  1  0.11104883  0.33333333  0.03409091  1.0
  Ni  Ni38  1  0.11104883  0.66666667  0.03409091  1.0
  Ni  Ni39  1  0.44438217  0.00000000  0.03409091  1.0
  Ni  Ni40  1  0.44438217  0.33333333  0.03409091  1.0
  Ni  Ni41  1  0.44438217  0.66666667  0.03409091  1.0
  Ni  Ni42  1  0.77771550  0.00000000  0.03409091  1.0
  Ni  Ni43  1  0.77771550  0.33333333  0.03409091  1.0
  Ni  Ni44  1  0.77771550  0.66666667  0.03409091  1.0
  Ni  Ni45  1  0.27771550  0.00000000  0.01136364  1.0
  Ni  Ni46  1  0.27771550  0.33333333  0.01136364  1.0
  Ni  Ni47  1  0.27771550  0.66666667  0.01136364  1.0
  Ni  Ni48  1  0.61104883  0.00000000  0.01136364  1.0
  Ni  Ni49  1  0.61104883  0.33333333  0.01136364  1.0
  Ni  Ni50  1  0.61104883  0.66666667  0.01136364  1.0
  Ni  Ni51  1  0.94438217  0.00000000  0.01136364  1.0
  Ni  Ni52  1  0.94438217  0.33333333  0.01136364  1.0
  Ni  Ni53  1  0.94438217  0.66666667  0.01136364  1.0
  Ta  Ta54  1  0.00000000  0.00000000  0.07957093  1.0
  Ta  Ta55  1  0.00000000  0.33333333  0.07957093  1.0
  Ta  Ta56  1  0.00000000  0.66666667  0.07957093  1.0
  Ta  Ta57  1  0.33333333  0.00000000  0.07957093  1.0
  Ta  Ta58  1  0.33333333  0.33333333  0.07957093  1.0
  Ta  Ta59  1  0.33333333  0.66666667  0.07957093  1.0
  Ta  Ta60  1  0.66666667  0.00000000  0.07957093  1.0
  Ta  Ta61  1  0.66666667  0.33333333  0.07957093  1.0
  Ta  Ta62  1  0.66666667  0.66666667  0.07957093  1.0
  Ta  Ta63  1  0.16666667  0.00000000  0.05684366  1.0
  Ta  Ta64  1  0.16666667  0.33333333  0.05684366  1.0
  Ta  Ta65  1  0.16666667  0.66666667  0.05684366  1.0
  Ta  Ta66  1  0.50000000  0.00000000  0.05684366  1.0
  Ta  Ta67  1  0.50000000  0.33333333  0.05684366  1.0
  Ta  Ta68  1  0.50000000  0.66666667  0.05684366  1.0
  Ta  Ta69  1  0.83333333  0.00000000  0.05684366  1.0
  Ta  Ta70  1  0.83333333  0.33333333  0.05684366  1.0
  Ta  Ta71  1  0.83333333  0.66666667  0.05684366  1.0
  Ni  Ni72  1  0.05561783  0.00000000  0.05686914  1.0
  Ni  Ni73  1  0.05561783  0.33333333  0.05686914  1.0
  Ni  Ni74  1  0.05561783  0.66666667  0.05686914  1.0
  Ni  Ni75  1  0.38895117  0.00000000  0.05686914  1.0
  Ni  Ni76  1  0.38895117  0.33333333  0.05686914  1.0
  Ni  Ni77  1  0.38895117  0.66666667  0.05686914  1.0
  Ni  Ni78  1  0.72228450  0.00000000  0.05686914  1.0
  Ni  Ni79  1  0.72228450  0.33333333  0.05686914  1.0
  Ni  Ni80  1  0.72228450  0.66666667  0.05686914  1.0
  Ni  Ni81  1  0.22228450  0.00000000  0.07959641  1.0
  Ni  Ni82  1  0.22228450  0.33333333  0.07959641  1.0
  Ni  Ni83  1  0.22228450  0.66666667  0.07959641  1.0
  Ni  Ni84  1  0.55561783  0.00000000  0.07959641  1.0
  Ni  Ni85  1  0.55561783  0.33333333  0.07959641  1.0
  Ni  Ni86  1  0.55561783  0.66666667  0.07959641  1.0
  Ni  Ni87  1  0.88895117  0.00000000  0.07959641  1.0
  Ni  Ni88  1  0.88895117  0.33333333  0.07959641  1.0
  Ni  Ni89  1  0.88895117  0.66666667  0.07959641  1.0
  Ni  Ni90  1  0.11104883  0.00000000  0.07954545  1.0
  Ni  Ni91  1  0.11104883  0.33333333  0.07954545  1.0
  Ni  Ni92  1  0.11104883  0.66666667  0.07954545  1.0
  Ni  Ni93  1  0.44438217  0.00000000  0.07954545  1.0
  Ni  Ni94  1  0.44438217  0.33333333  0.07954545  1.0
  Ni  Ni95  1  0.44438217  0.66666667  0.07954545  1.0
  Ni  Ni96  1  0.77771550  0.00000000  0.07954545  1.0
  Ni  Ni97  1  0.77771550  0.33333333  0.07954545  1.0
  Ni  Ni98  1  0.77771550  0.66666667  0.07954545  1.0
  Ni  Ni99  1  0.27771550  0.00000000  0.05681818  1.0
  Ni  Ni100  1  0.27771550  0.33333333  0.05681818  1.0
  Ni  Ni101  1  0.27771550  0.66666667  0.05681818  1.0
  Ni  Ni102  1  0.61104883  0.00000000  0.05681818  1.0
  Ni  Ni103  1  0.61104883  0.33333333  0.05681818  1.0
  Ni  Ni104  1  0.61104883  0.66666667  0.05681818  1.0
  Ni  Ni105  1  0.94438217  0.00000000  0.05681818  1.0
  Ni  Ni106  1  0.94438217  0.33333333  0.05681818  1.0
  Ni  Ni107  1  0.94438217  0.66666667  0.05681818  1.0
  Ta  Ta108  1  0.00000000  0.00000000  0.12502548  1.0
  Ta  Ta109  1  0.00000000  0.33333333  0.12502548  1.0
  Ta  Ta110  1  0.00000000  0.66666667  0.12502548  1.0
  Ta  Ta111  1  0.33333333  0.00000000  0.12502548  1.0
  Ta  Ta112  1  0.33333333  0.33333333  0.12502548  1.0
  Ta  Ta113  1  0.33333333  0.66666667  0.12502548  1.0
  Ta  Ta114  1  0.66666667  0.00000000  0.12502548  1.0
  Ta  Ta115  1  0.66666667  0.33333333  0.12502548  1.0
  Ta  Ta116  1  0.66666667  0.66666667  0.12502548  1.0
  Ta  Ta117  1  0.16666667  0.00000000  0.10229820  1.0
  Ta  Ta118  1  0.16666667  0.33333333  0.10229820  1.0
  Ta  Ta119  1  0.16666667  0.66666667  0.10229820  1.0
  Ta  Ta120  1  0.50000000  0.00000000  0.10229820  1.0
  Ta  Ta121  1  0.50000000  0.33333333  0.10229820  1.0
  Ta  Ta122  1  0.50000000  0.66666667  0.10229820  1.0
  Ta  Ta123  1  0.83333333  0.00000000  0.10229820  1.0
  Ta  Ta124  1  0.83333333  0.33333333  0.10229820  1.0
  Ta  Ta125  1  0.83333333  0.66666667  0.10229820  1.0
  Ni  Ni126  1  0.05561783  0.00000000  0.10232368  1.0
  Ni  Ni127  1  0.05561783  0.33333333  0.10232368  1.0
  Ni  Ni128  1  0.05561783  0.66666667  0.10232368  1.0
  Ni  Ni129  1  0.38895117  0.00000000  0.10232368  1.0
  Ni  Ni130  1  0.38895117  0.33333333  0.10232368  1.0
  Ni  Ni131  1  0.38895117  0.66666667  0.10232368  1.0
  Ni  Ni132  1  0.72228450  0.00000000  0.10232368  1.0
  Ni  Ni133  1  0.72228450  0.33333333  0.10232368  1.0
  Ni  Ni134  1  0.72228450  0.66666667  0.10232368  1.0
  Ni  Ni135  1  0.22228450  0.00000000  0.12505095  1.0
  Ni  Ni136  1  0.22228450  0.33333333  0.12505095  1.0
  Ni  Ni137  1  0.22228450  0.66666667  0.12505095  1.0
  Ni  Ni138  1  0.55561783  0.00000000  0.12505095  1.0
  Ni  Ni139  1  0.55561783  0.33333333  0.12505095  1.0
  Ni  Ni140  1  0.55561783  0.66666667  0.12505095  1.0
  Ni  Ni141  1  0.88895117  0.00000000  0.12505095  1.0
  Ni  Ni142  1  0.88895117  0.33333333  0.12505095  1.0
  Ni  Ni143  1  0.88895117  0.66666667  0.12505095  1.0
  Ni  Ni144  1  0.11104883  0.00000000  0.12500000  1.0
  Ni  Ni145  1  0.11104883  0.33333333  0.12500000  1.0
  Ni  Ni146  1  0.11104883  0.66666667  0.12500000  1.0
  Ni  Ni147  1  0.44438217  0.00000000  0.12500000  1.0
  Ni  Ni148  1  0.44438217  0.33333333  0.12500000  1.0
  Ni  Ni149  1  0.44438217  0.66666667  0.12500000  1.0
  Ni  Ni150  1  0.77771550  0.00000000  0.12500000  1.0
  Ni  Ni151  1  0.77771550  0.33333333  0.12500000  1.0
  Ni  Ni152  1  0.77771550  0.66666667  0.12500000  1.0
  Ni  Ni153  1  0.27771550  0.00000000  0.10227273  1.0
  Ni  Ni154  1  0.27771550  0.33333333  0.10227273  1.0
  Ni  Ni155  1  0.27771550  0.66666667  0.10227273  1.0
  Ni  Ni156  1  0.61104883  0.00000000  0.10227273  1.0
  Ni  Ni157  1  0.61104883  0.33333333  0.10227273  1.0
  Ni  Ni158  1  0.61104883  0.66666667  0.10227273  1.0
  Ni  Ni159  1  0.94438217  0.00000000  0.10227273  1.0
  Ni  Ni160  1  0.94438217  0.33333333  0.10227273  1.0
  Ni  Ni161  1  0.94438217  0.66666667  0.10227273  1.0
  Ta  Ta162  1  0.00000000  0.00000000  0.17048002  1.0
  Ta  Ta163  1  0.00000000  0.33333333  0.17048002  1.0
  Ta  Ta164  1  0.00000000  0.66666667  0.17048002  1.0
  Ta  Ta165  1  0.33333333  0.00000000  0.17048002  1.0
  Ta  Ta166  1  0.33333333  0.33333333  0.17048002  1.0
  Ta  Ta167  1  0.33333333  0.66666667  0.17048002  1.0
  Ta  Ta168  1  0.66666667  0.00000000  0.17048002  1.0
  Ta  Ta169  1  0.66666667  0.33333333  0.17048002  1.0
  Ta  Ta170  1  0.66666667  0.66666667  0.17048002  1.0
  Ta  Ta171  1  0.16666667  0.00000000  0.14775275  1.0
  Ta  Ta172  1  0.16666667  0.33333333  0.14775275  1.0
  Ta  Ta173  1  0.16666667  0.66666667  0.14775275  1.0
  Ta  Ta174  1  0.50000000  0.00000000  0.14775275  1.0
  Ta  Ta175  1  0.50000000  0.33333333  0.14775275  1.0
  Ta  Ta176  1  0.50000000  0.66666667  0.14775275  1.0
  Ta  Ta177  1  0.83333333  0.00000000  0.14775275  1.0
  Ta  Ta178  1  0.83333333  0.33333333  0.14775275  1.0
  Ta  Ta179  1  0.83333333  0.66666667  0.14775275  1.0
  Ni  Ni180  1  0.05561783  0.00000000  0.14777823  1.0
  Ni  Ni181  1  0.05561783  0.33333333  0.14777823  1.0
  Ni  Ni182  1  0.05561783  0.66666667  0.14777823  1.0
  Ni  Ni183  1  0.38895117  0.00000000  0.14777823  1.0
  Ni  Ni184  1  0.38895117  0.33333333  0.14777823  1.0
  Ni  Ni185  1  0.38895117  0.66666667  0.14777823  1.0
  Ni  Ni186  1  0.72228450  0.00000000  0.14777823  1.0
  Ni  Ni187  1  0.72228450  0.33333333  0.14777823  1.0
  Ni  Ni188  1  0.72228450  0.66666667  0.14777823  1.0
  Ni  Ni189  1  0.22228450  0.00000000  0.17050550  1.0
  Ni  Ni190  1  0.22228450  0.33333333  0.17050550  1.0
  Ni  Ni191  1  0.22228450  0.66666667  0.17050550  1.0
  Ni  Ni192  1  0.55561783  0.00000000  0.17050550  1.0
  Ni  Ni193  1  0.55561783  0.33333333  0.17050550  1.0
  Ni  Ni194  1  0.55561783  0.66666667  0.17050550  1.0
  Ni  Ni195  1  0.88895117  0.00000000  0.17050550  1.0
  Ni  Ni196  1  0.88895117  0.33333333  0.17050550  1.0
  Ni  Ni197  1  0.88895117  0.66666667  0.17050550  1.0
  Ni  Ni198  1  0.11104883  0.00000000  0.17045455  1.0
  Ni  Ni199  1  0.11104883  0.33333333  0.17045455  1.0
  Ni  Ni200  1  0.11104883  0.66666667  0.17045455  1.0
  Ni  Ni201  1  0.44438217  0.00000000  0.17045455  1.0
  Ni  Ni202  1  0.44438217  0.33333333  0.17045455  1.0
  Ni  Ni203  1  0.44438217  0.66666667  0.17045455  1.0
  Ni  Ni204  1  0.77771550  0.00000000  0.17045455  1.0
  Ni  Ni205  1  0.77771550  0.33333333  0.17045455  1.0
  Ni  Ni206  1  0.77771550  0.66666667  0.17045455  1.0
  Ni  Ni207  1  0.27771550  0.00000000  0.14772727  1.0
  Ni  Ni208  1  0.27771550  0.33333333  0.14772727  1.0
  Ni  Ni209  1  0.27771550  0.66666667  0.14772727  1.0
  Ni  Ni210  1  0.61104883  0.00000000  0.14772727  1.0
  Ni  Ni211  1  0.61104883  0.33333333  0.14772727  1.0
  Ni  Ni212  1  0.61104883  0.66666667  0.14772727  1.0
  Ni  Ni213  1  0.94438217  0.00000000  0.14772727  1.0
  Ni  Ni214  1  0.94438217  0.33333333  0.14772727  1.0
  Ni  Ni215  1  0.94438217  0.66666667  0.14772727  1.0
  Ta  Ta216  1  0.00000000  0.00000000  0.21593457  1.0
  Ta  Ta217  1  0.00000000  0.33333333  0.21593457  1.0
  Ta  Ta218  1  0.00000000  0.66666667  0.21593457  1.0
  Ta  Ta219  1  0.33333333  0.00000000  0.21593457  1.0
  Ta  Ta220  1  0.33333333  0.33333333  0.21593457  1.0
  Ta  Ta221  1  0.33333333  0.66666667  0.21593457  1.0
  Ta  Ta222  1  0.66666667  0.00000000  0.21593457  1.0
  Ta  Ta223  1  0.66666667  0.33333333  0.21593457  1.0
  Ta  Ta224  1  0.66666667  0.66666667  0.21593457  1.0
  Ta  Ta225  1  0.16666667  0.00000000  0.19320730  1.0
  Ta  Ta226  1  0.16666667  0.33333333  0.19320730  1.0
  Ta  Ta227  1  0.16666667  0.66666667  0.19320730  1.0
  Ta  Ta228  1  0.50000000  0.00000000  0.19320730  1.0
  Ta  Ta229  1  0.50000000  0.33333333  0.19320730  1.0
  Ta  Ta230  1  0.50000000  0.66666667  0.19320730  1.0
  Ta  Ta231  1  0.83333333  0.00000000  0.19320730  1.0
  Ta  Ta232  1  0.83333333  0.33333333  0.19320730  1.0
  Ta  Ta233  1  0.83333333  0.66666667  0.19320730  1.0
  Ni  Ni234  1  0.05561783  0.00000000  0.19323277  1.0
  Ni  Ni235  1  0.05561783  0.33333333  0.19323277  1.0
  Ni  Ni236  1  0.05561783  0.66666667  0.19323277  1.0
  Ni  Ni237  1  0.38895117  0.00000000  0.19323277  1.0
  Ni  Ni238  1  0.38895117  0.33333333  0.19323277  1.0
  Ni  Ni239  1  0.38895117  0.66666667  0.19323277  1.0
  Ni  Ni240  1  0.72228450  0.00000000  0.19323277  1.0
  Ni  Ni241  1  0.72228450  0.33333333  0.19323277  1.0
  Ni  Ni242  1  0.72228450  0.66666667  0.19323277  1.0
  Ni  Ni243  1  0.22228450  0.00000000  0.21596005  1.0
  Ni  Ni244  1  0.22228450  0.33333333  0.21596005  1.0
  Ni  Ni245  1  0.22228450  0.66666667  0.21596005  1.0
  Ni  Ni246  1  0.55561783  0.00000000  0.21596005  1.0
  Ni  Ni247  1  0.55561783  0.33333333  0.21596005  1.0
  Ni  Ni248  1  0.55561783  0.66666667  0.21596005  1.0
  Ni  Ni249  1  0.88895117  0.00000000  0.21596005  1.0
  Ni  Ni250  1  0.88895117  0.33333333  0.21596005  1.0
  Ni  Ni251  1  0.88895117  0.66666667  0.21596005  1.0
  Ni  Ni252  1  0.11104883  0.00000000  0.21590909  1.0
  Ni  Ni253  1  0.11104883  0.33333333  0.21590909  1.0
  Ni  Ni254  1  0.11104883  0.66666667  0.21590909  1.0
  Ni  Ni255  1  0.44438217  0.00000000  0.21590909  1.0
  Ni  Ni256  1  0.44438217  0.33333333  0.21590909  1.0
  Ni  Ni257  1  0.44438217  0.66666667  0.21590909  1.0
  Ni  Ni258  1  0.77771550  0.00000000  0.21590909  1.0
  Ni  Ni259  1  0.77771550  0.33333333  0.21590909  1.0
  Ni  Ni260  1  0.77771550  0.66666667  0.21590909  1.0
  Ni  Ni261  1  0.27771550  0.00000000  0.19318182  1.0
  Ni  Ni262  1  0.27771550  0.33333333  0.19318182  1.0
  Ni  Ni263  1  0.27771550  0.66666667  0.19318182  1.0
  Ni  Ni264  1  0.61104883  0.00000000  0.19318182  1.0
  Ni  Ni265  1  0.61104883  0.33333333  0.19318182  1.0
  Ni  Ni266  1  0.61104883  0.66666667  0.19318182  1.0
  Ni  Ni267  1  0.94438217  0.00000000  0.19318182  1.0
  Ni  Ni268  1  0.94438217  0.33333333  0.19318182  1.0
  Ni  Ni269  1  0.94438217  0.66666667  0.19318182  1.0
  Ta  Ta270  1  0.00000000  0.00000000  0.26138911  1.0
  Ta  Ta271  1  0.00000000  0.33333333  0.26138911  1.0
  Ta  Ta272  1  0.00000000  0.66666667  0.26138911  1.0
  Ta  Ta273  1  0.33333333  0.00000000  0.26138911  1.0
  Ta  Ta274  1  0.33333333  0.33333333  0.26138911  1.0
  Ta  Ta275  1  0.33333333  0.66666667  0.26138911  1.0
  Ta  Ta276  1  0.66666667  0.00000000  0.26138911  1.0
  Ta  Ta277  1  0.66666667  0.33333333  0.26138911  1.0
  Ta  Ta278  1  0.66666667  0.66666667  0.26138911  1.0
  Ta  Ta279  1  0.16666667  0.00000000  0.23866184  1.0
  Ta  Ta280  1  0.16666667  0.33333333  0.23866184  1.0
  Ta  Ta281  1  0.16666667  0.66666667  0.23866184  1.0
  Ta  Ta282  1  0.50000000  0.00000000  0.23866184  1.0
  Ta  Ta283  1  0.50000000  0.33333333  0.23866184  1.0
  Ta  Ta284  1  0.50000000  0.66666667  0.23866184  1.0
  Ta  Ta285  1  0.83333333  0.00000000  0.23866184  1.0
  Ta  Ta286  1  0.83333333  0.33333333  0.23866184  1.0
  Ta  Ta287  1  0.83333333  0.66666667  0.23866184  1.0
  Ni  Ni288  1  0.05561783  0.00000000  0.23868732  1.0
  Ni  Ni289  1  0.05561783  0.33333333  0.23868732  1.0
  Ni  Ni290  1  0.05561783  0.66666667  0.23868732  1.0
  Ni  Ni291  1  0.38895117  0.00000000  0.23868732  1.0
  Ni  Ni292  1  0.38895117  0.33333333  0.23868732  1.0
  Ni  Ni293  1  0.38895117  0.66666667  0.23868732  1.0
  Ni  Ni294  1  0.72228450  0.00000000  0.23868732  1.0
  Ni  Ni295  1  0.72228450  0.33333333  0.23868732  1.0
  Ni  Ni296  1  0.72228450  0.66666667  0.23868732  1.0
  Ni  Ni297  1  0.22228450  0.00000000  0.26141459  1.0
  Ni  Ni298  1  0.22228450  0.33333333  0.26141459  1.0
  Ni  Ni299  1  0.22228450  0.66666667  0.26141459  1.0
  Ni  Ni300  1  0.55561783  0.00000000  0.26141459  1.0
  Ni  Ni301  1  0.55561783  0.33333333  0.26141459  1.0
  Ni  Ni302  1  0.55561783  0.66666667  0.26141459  1.0
  Ni  Ni303  1  0.88895117  0.00000000  0.26141459  1.0
  Ni  Ni304  1  0.88895117  0.33333333  0.26141459  1.0
  Ni  Ni305  1  0.88895117  0.66666667  0.26141459  1.0
  Ni  Ni306  1  0.11104883  0.00000000  0.26136364  1.0
  Ni  Ni307  1  0.11104883  0.33333333  0.26136364  1.0
  Ni  Ni308  1  0.11104883  0.66666667  0.26136364  1.0
  Ni  Ni309  1  0.44438217  0.00000000  0.26136364  1.0
  Ni  Ni310  1  0.44438217  0.33333333  0.26136364  1.0
  Ni  Ni311  1  0.44438217  0.66666667  0.26136364  1.0
  Ni  Ni312  1  0.77771550  0.00000000  0.26136364  1.0
  Ni  Ni313  1  0.77771550  0.33333333  0.26136364  1.0
  Ni  Ni314  1  0.77771550  0.66666667  0.26136364  1.0
  Ni  Ni315  1  0.27771550  0.00000000  0.23863636  1.0
  Ni  Ni316  1  0.27771550  0.33333333  0.23863636  1.0
  Ni  Ni317  1  0.27771550  0.66666667  0.23863636  1.0
  Ni  Ni318  1  0.61104883  0.00000000  0.23863636  1.0
  Ni  Ni319  1  0.61104883  0.33333333  0.23863636  1.0
  Ni  Ni320  1  0.61104883  0.66666667  0.23863636  1.0
  Ni  Ni321  1  0.94438217  0.00000000  0.23863636  1.0
  Ni  Ni322  1  0.94438217  0.33333333  0.23863636  1.0
  Ni  Ni323  1  0.94438217  0.66666667  0.23863636  1.0
  Ta  Ta324  1  0.00000000  0.00000000  0.30684366  1.0
  Ta  Ta325  1  0.00000000  0.33333333  0.30684366  1.0
  Ta  Ta326  1  0.00000000  0.66666667  0.30684366  1.0
  Ta  Ta327  1  0.33333333  0.00000000  0.30684366  1.0
  Ta  Ta328  1  0.33333333  0.33333333  0.30684366  1.0
  Ta  Ta329  1  0.33333333  0.66666667  0.30684366  1.0
  Ta  Ta330  1  0.66666667  0.00000000  0.30684366  1.0
  Ta  Ta331  1  0.66666667  0.33333333  0.30684366  1.0
  Ta  Ta332  1  0.66666667  0.66666667  0.30684366  1.0
  Ta  Ta333  1  0.16666667  0.00000000  0.28411639  1.0
  Ta  Ta334  1  0.16666667  0.33333333  0.28411639  1.0
  Ta  Ta335  1  0.16666667  0.66666667  0.28411639  1.0
  Ta  Ta336  1  0.50000000  0.00000000  0.28411639  1.0
  Ta  Ta337  1  0.50000000  0.33333333  0.28411639  1.0
  Ta  Ta338  1  0.50000000  0.66666667  0.28411639  1.0
  Ta  Ta339  1  0.83333333  0.00000000  0.28411639  1.0
  Ta  Ta340  1  0.83333333  0.33333333  0.28411639  1.0
  Ta  Ta341  1  0.83333333  0.66666667  0.28411639  1.0
  Ni  Ni342  1  0.05561783  0.00000000  0.28414186  1.0
  Ni  Ni343  1  0.05561783  0.33333333  0.28414186  1.0
  Ni  Ni344  1  0.05561783  0.66666667  0.28414186  1.0
  Ni  Ni345  1  0.38895117  0.00000000  0.28414186  1.0
  Ni  Ni346  1  0.38895117  0.33333333  0.28414186  1.0
  Ni  Ni347  1  0.38895117  0.66666667  0.28414186  1.0
  Ni  Ni348  1  0.72228450  0.00000000  0.28414186  1.0
  Ni  Ni349  1  0.72228450  0.33333333  0.28414186  1.0
  Ni  Ni350  1  0.72228450  0.66666667  0.28414186  1.0
  Ni  Ni351  1  0.22228450  0.00000000  0.30686914  1.0
  Ni  Ni352  1  0.22228450  0.33333333  0.30686914  1.0
  Ni  Ni353  1  0.22228450  0.66666667  0.30686914  1.0
  Ni  Ni354  1  0.55561783  0.00000000  0.30686914  1.0
  Ni  Ni355  1  0.55561783  0.33333333  0.30686914  1.0
  Ni  Ni356  1  0.55561783  0.66666667  0.30686914  1.0
  Ni  Ni357  1  0.88895117  0.00000000  0.30686914  1.0
  Ni  Ni358  1  0.88895117  0.33333333  0.30686914  1.0
  Ni  Ni359  1  0.88895117  0.66666667  0.30686914  1.0
  Ni  Ni360  1  0.11104883  0.00000000  0.30681818  1.0
  Ni  Ni361  1  0.11104883  0.33333333  0.30681818  1.0
  Ni  Ni362  1  0.11104883  0.66666667  0.30681818  1.0
  Ni  Ni363  1  0.44438217  0.00000000  0.30681818  1.0
  Ni  Ni364  1  0.44438217  0.33333333  0.30681818  1.0
  Ni  Ni365  1  0.44438217  0.66666667  0.30681818  1.0
  Ni  Ni366  1  0.77771550  0.00000000  0.30681818  1.0
  Ni  Ni367  1  0.77771550  0.33333333  0.30681818  1.0
  Ni  Ni368  1  0.77771550  0.66666667  0.30681818  1.0
  Ni  Ni369  1  0.27771550  0.00000000  0.28409091  1.0
  Ni  Ni370  1  0.27771550  0.33333333  0.28409091  1.0
  Ni  Ni371  1  0.27771550  0.66666667  0.28409091  1.0
  Ni  Ni372  1  0.61104883  0.00000000  0.28409091  1.0
  Ni  Ni373  1  0.61104883  0.33333333  0.28409091  1.0
  Ni  Ni374  1  0.61104883  0.66666667  0.28409091  1.0
  Ni  Ni375  1  0.94438217  0.00000000  0.28409091  1.0
  Ni  Ni376  1  0.94438217  0.33333333  0.28409091  1.0
  Ni  Ni377  1  0.94438217  0.66666667  0.28409091  1.0
  Ta  Ta378  1  0.00000000  0.00000000  0.35229820  1.0
  Ta  Ta379  1  0.00000000  0.33333333  0.35229820  1.0
  Ta  Ta380  1  0.00000000  0.66666667  0.35229820  1.0
  Ta  Ta381  1  0.33333333  0.00000000  0.35229820  1.0
  Ta  Ta382  1  0.33333333  0.33333333  0.35229820  1.0
  Ta  Ta383  1  0.33333333  0.66666667  0.35229820  1.0
  Ta  Ta384  1  0.66666667  0.00000000  0.35229820  1.0
  Ta  Ta385  1  0.66666667  0.33333333  0.35229820  1.0
  Ta  Ta386  1  0.66666667  0.66666667  0.35229820  1.0
  Ta  Ta387  1  0.16666667  0.00000000  0.32957093  1.0
  Ta  Ta388  1  0.16666667  0.33333333  0.32957093  1.0
  Ta  Ta389  1  0.16666667  0.66666667  0.32957093  1.0
  Ta  Ta390  1  0.50000000  0.00000000  0.32957093  1.0
  Ta  Ta391  1  0.50000000  0.33333333  0.32957093  1.0
  Ta  Ta392  1  0.50000000  0.66666667  0.32957093  1.0
  Ta  Ta393  1  0.83333333  0.00000000  0.32957093  1.0
  Ta  Ta394  1  0.83333333  0.33333333  0.32957093  1.0
  Ta  Ta395  1  0.83333333  0.66666667  0.32957093  1.0
  Ni  Ni396  1  0.05561783  0.00000000  0.32959641  1.0
  Ni  Ni397  1  0.05561783  0.33333333  0.32959641  1.0
  Ni  Ni398  1  0.05561783  0.66666667  0.32959641  1.0
  Ni  Ni399  1  0.38895117  0.00000000  0.32959641  1.0
  Ni  Ni400  1  0.38895117  0.33333333  0.32959641  1.0
  Ni  Ni401  1  0.38895117  0.66666667  0.32959641  1.0
  Ni  Ni402  1  0.72228450  0.00000000  0.32959641  1.0
  Ni  Ni403  1  0.72228450  0.33333333  0.32959641  1.0
  Ni  Ni404  1  0.72228450  0.66666667  0.32959641  1.0
  Ni  Ni405  1  0.22228450  0.00000000  0.35232368  1.0
  Ni  Ni406  1  0.22228450  0.33333333  0.35232368  1.0
  Ni  Ni407  1  0.22228450  0.66666667  0.35232368  1.0
  Ni  Ni408  1  0.55561783  0.00000000  0.35232368  1.0
  Ni  Ni409  1  0.55561783  0.33333333  0.35232368  1.0
  Ni  Ni410  1  0.55561783  0.66666667  0.35232368  1.0
  Ni  Ni411  1  0.88895117  0.00000000  0.35232368  1.0
  Ni  Ni412  1  0.88895117  0.33333333  0.35232368  1.0
  Ni  Ni413  1  0.88895117  0.66666667  0.35232368  1.0
  Ni  Ni414  1  0.11104883  0.00000000  0.35227273  1.0
  Ni  Ni415  1  0.11104883  0.33333333  0.35227273  1.0
  Ni  Ni416  1  0.11104883  0.66666667  0.35227273  1.0
  Ni  Ni417  1  0.44438217  0.00000000  0.35227273  1.0
  Ni  Ni418  1  0.44438217  0.33333333  0.35227273  1.0
  Ni  Ni419  1  0.44438217  0.66666667  0.35227273  1.0
  Ni  Ni420  1  0.77771550  0.00000000  0.35227273  1.0
  Ni  Ni421  1  0.77771550  0.33333333  0.35227273  1.0
  Ni  Ni422  1  0.77771550  0.66666667  0.35227273  1.0
  Ni  Ni423  1  0.27771550  0.00000000  0.32954545  1.0
  Ni  Ni424  1  0.27771550  0.33333333  0.32954545  1.0
  Ni  Ni425  1  0.27771550  0.66666667  0.32954545  1.0
  Ni  Ni426  1  0.61104883  0.00000000  0.32954545  1.0
  Ni  Ni427  1  0.61104883  0.33333333  0.32954545  1.0
  Ni  Ni428  1  0.61104883  0.66666667  0.32954545  1.0
  Ni  Ni429  1  0.94438217  0.00000000  0.32954545  1.0
  Ni  Ni430  1  0.94438217  0.33333333  0.32954545  1.0
  Ni  Ni431  1  0.94438217  0.66666667  0.32954545  1.0
  Ta  Ta432  1  0.00000000  0.00000000  0.39775275  1.0
  Ta  Ta433  1  0.00000000  0.33333333  0.39775275  1.0
  Ta  Ta434  1  0.00000000  0.66666667  0.39775275  1.0
  Ta  Ta435  1  0.33333333  0.00000000  0.39775275  1.0
  Ta  Ta436  1  0.33333333  0.33333333  0.39775275  1.0
  Ta  Ta437  1  0.33333333  0.66666667  0.39775275  1.0
  Ta  Ta438  1  0.66666667  0.00000000  0.39775275  1.0
  Ta  Ta439  1  0.66666667  0.33333333  0.39775275  1.0
  Ta  Ta440  1  0.66666667  0.66666667  0.39775275  1.0
  Ta  Ta441  1  0.16666667  0.00000000  0.37502548  1.0
  Ta  Ta442  1  0.16666667  0.33333333  0.37502548  1.0
  Ta  Ta443  1  0.16666667  0.66666667  0.37502548  1.0
  Ta  Ta444  1  0.50000000  0.00000000  0.37502548  1.0
  Ta  Ta445  1  0.50000000  0.33333333  0.37502548  1.0
  Ta  Ta446  1  0.50000000  0.66666667  0.37502548  1.0
  Ta  Ta447  1  0.83333333  0.00000000  0.37502548  1.0
  Ta  Ta448  1  0.83333333  0.33333333  0.37502548  1.0
  Ta  Ta449  1  0.83333333  0.66666667  0.37502548  1.0
  Ni  Ni450  1  0.05561783  0.00000000  0.37505095  1.0
  Ni  Ni451  1  0.05561783  0.33333333  0.37505095  1.0
  Ni  Ni452  1  0.05561783  0.66666667  0.37505095  1.0
  Ni  Ni453  1  0.38895117  0.00000000  0.37505095  1.0
  Ni  Ni454  1  0.38895117  0.33333333  0.37505095  1.0
  Ni  Ni455  1  0.38895117  0.66666667  0.37505095  1.0
  Ni  Ni456  1  0.72228450  0.00000000  0.37505095  1.0
  Ni  Ni457  1  0.72228450  0.33333333  0.37505095  1.0
  Ni  Ni458  1  0.72228450  0.66666667  0.37505095  1.0
  Ni  Ni459  1  0.22228450  0.00000000  0.39777823  1.0
  Ni  Ni460  1  0.22228450  0.33333333  0.39777823  1.0
  Ni  Ni461  1  0.22228450  0.66666667  0.39777823  1.0
  Ni  Ni462  1  0.55561783  0.00000000  0.39777823  1.0
  Ni  Ni463  1  0.55561783  0.33333333  0.39777823  1.0
  Ni  Ni464  1  0.55561783  0.66666667  0.39777823  1.0
  Ni  Ni465  1  0.88895117  0.00000000  0.39777823  1.0
  Ni  Ni466  1  0.88895117  0.33333333  0.39777823  1.0
  Ni  Ni467  1  0.88895117  0.66666667  0.39777823  1.0
  Ni  Ni468  1  0.11104883  0.00000000  0.39772727  1.0
  Ni  Ni469  1  0.11104883  0.33333333  0.39772727  1.0
  Ni  Ni470  1  0.11104883  0.66666667  0.39772727  1.0
  Ni  Ni471  1  0.44438217  0.00000000  0.39772727  1.0
  Ni  Ni472  1  0.44438217  0.33333333  0.39772727  1.0
  Ni  Ni473  1  0.44438217  0.66666667  0.39772727  1.0
  Ni  Ni474  1  0.77771550  0.00000000  0.39772727  1.0
  Ni  Ni475  1  0.77771550  0.33333333  0.39772727  1.0
  Ni  Ni476  1  0.77771550  0.66666667  0.39772727  1.0
  Ni  Ni477  1  0.27771550  0.00000000  0.37500000  1.0
  Ni  Ni478  1  0.27771550  0.33333333  0.37500000  1.0
  Ni  Ni479  1  0.27771550  0.66666667  0.37500000  1.0
  Ni  Ni480  1  0.61104883  0.00000000  0.37500000  1.0
  Ni  Ni481  1  0.61104883  0.33333333  0.37500000  1.0
  Ni  Ni482  1  0.61104883  0.66666667  0.37500000  1.0
  Ni  Ni483  1  0.94438217  0.00000000  0.37500000  1.0
  Ni  Ni484  1  0.94438217  0.33333333  0.37500000  1.0
  Ni  Ni485  1  0.94438217  0.66666667  0.37500000  1.0
