# generated using pymatgen
data_TaNi3
_symmetry_space_group_name_H-M   'P 1'
_cell_length_a   10.88642399
_cell_length_b   20.54856162
_cell_length_c   28.86238820
_cell_angle_alpha   94.29045840
_cell_angle_beta   90.00000000
_cell_angle_gamma   105.36071599
_symmetry_Int_Tables_number   1
_chemical_formula_structural   TaNi3
_chemical_formula_sum   'Ta54 Ni162'
_cell_volume   6207.11557646
_cell_formula_units_Z   54
loop_
 _symmetry_equiv_pos_site_id
 _symmetry_equiv_pos_as_xyz
  1  'x, y, z'
loop_
 _atom_site_type_symbol
 _atom_site_label
 _atom_site_symmetry_multiplicity
 _atom_site_fract_x
 _atom_site_fract_y
 _atom_site_fract_z
 _atom_site_occupancy
  Ni  Ni0  1  0.06845238  0.11607143  0.09821429  1.0
  Ni  Ni1  1  0.06845238  0.44940476  0.09821429  1.0
  Ni  Ni2  1  0.06845238  0.78273810  0.09821429  1.0
  Ni  Ni3  1  0.40178571  0.11607143  0.09821429  1.0
  Ni  Ni4  1  0.40178571  0.44940476  0.09821429  1.0
  Ni  Ni5  1  0.40178571  0.78273810  0.09821429  1.0
  Ni  Ni6  1  0.73511905  0.11607143  0.09821429  1.0
  Ni  Ni7  1  0.73511905  0.44940476  0.09821429  1.0
  Ni  Ni8  1  0.73511905  0.78273810  0.09821429  1.0
  Ni  Ni9  1  0.13988095  0.25892857  0.02678571  1.0
  Ni  Ni10  1  0.13988095  0.59226190  0.02678571  1.0
  Ni  Ni11  1  0.13988095  0.92559524  0.02678571  1.0
  Ni  Ni12  1  0.47321429  0.25892857  0.02678571  1.0
  Ni  Ni13  1  0.47321429  0.59226190  0.02678571  1.0
  Ni  Ni14  1  0.47321429  0.92559524  0.02678571  1.0
  Ni  Ni15  1  0.80654762  0.25892857  0.02678571  1.0
  Ni  Ni16  1  0.80654762  0.59226190  0.02678571  1.0
  Ni  Ni17  1  0.80654762  0.92559524  0.02678571  1.0
  Ni  Ni18  1  0.07440476  0.12797619  0.00892857  1.0
  Ni  Ni19  1  0.07440476  0.46130952  0.00892857  1.0
  Ni  Ni20  1  0.07440476  0.79464286  0.00892857  1.0
  Ni  Ni21  1  0.40773810  0.12797619  0.00892857  1.0
  Ni  Ni22  1  0.40773810  0.46130952  0.00892857  1.0
  Ni  Ni23  1  0.40773810  0.79464286  0.00892857  1.0
  Ni  Ni24  1  0.74107143  0.12797619  0.00892857  1.0
  Ni  Ni25  1  0.74107143  0.46130952  0.00892857  1.0
  Ni  Ni26  1  0.74107143  0.79464286  0.00892857  1.0
  Ni  Ni27  1  0.00297619  0.31845238  0.08035714  1.0
  Ni  Ni28  1  0.00297619  0.65178571  0.08035714  1.0
  Ni  Ni29  1  0.00297619  0.98511905  0.08035714  1.0
  Ni  Ni30  1  0.33630952  0.31845238  0.08035714  1.0
  Ni  Ni31  1  0.33630952  0.65178571  0.08035714  1.0
  Ni  Ni32  1  0.33630952  0.98511905  0.08035714  1.0
  Ni  Ni33  1  0.66964286  0.31845238  0.08035714  1.0
  Ni  Ni34  1  0.66964286  0.65178571  0.08035714  1.0
  Ni  Ni35  1  0.66964286  0.98511905  0.08035714  1.0
  Ni  Ni36  1  0.13392857  0.24702381  0.11607143  1.0
  Ni  Ni37  1  0.13392857  0.58035714  0.11607143  1.0
  Ni  Ni38  1  0.13392857  0.91369048  0.11607143  1.0
  Ni  Ni39  1  0.46726190  0.24702381  0.11607143  1.0
  Ni  Ni40  1  0.46726190  0.58035714  0.11607143  1.0
  Ni  Ni41  1  0.46726190  0.91369048  0.11607143  1.0
  Ni  Ni42  1  0.80059524  0.24702381  0.11607143  1.0
  Ni  Ni43  1  0.80059524  0.58035714  0.11607143  1.0
  Ni  Ni44  1  0.80059524  0.91369048  0.11607143  1.0
  Ni  Ni45  1  0.20535714  0.05654762  0.04464286  1.0
  Ni  Ni46  1  0.20535714  0.38988095  0.04464286  1.0
  Ni  Ni47  1  0.20535714  0.72321429  0.04464286  1.0
  Ni  Ni48  1  0.53869048  0.05654762  0.04464286  1.0
  Ni  Ni49  1  0.53869048  0.38988095  0.04464286  1.0
  Ni  Ni50  1  0.53869048  0.72321429  0.04464286  1.0
  Ni  Ni51  1  0.87202381  0.05654762  0.04464286  1.0
  Ni  Ni52  1  0.87202381  0.38988095  0.04464286  1.0
  Ni  Ni53  1  0.87202381  0.72321429  0.04464286  1.0
  Ni  Ni54  1  0.25892857  0.16369048  0.24107143  1.0
  Ni  Ni55  1  0.25892857  0.49702381  0.24107143  1.0
  Ni  Ni56  1  0.25892857  0.83035714  0.24107143  1.0
  Ni  Ni57  1  0.59226190  0.16369048  0.24107143  1.0
  Ni  Ni58  1  0.59226190  0.49702381  0.24107143  1.0
  Ni  Ni59  1  0.59226190  0.83035714  0.24107143  1.0
  Ni  Ni60  1  0.92559524  0.16369048  0.24107143  1.0
  Ni  Ni61  1  0.92559524  0.49702381  0.24107143  1.0
  Ni  Ni62  1  0.92559524  0.83035714  0.24107143  1.0
  Ni  Ni63  1  0.33035714  0.30654762  0.16964286  1.0
  Ni  Ni64  1  0.33035714  0.63988095  0.16964286  1.0
  Ni  Ni65  1  0.33035714  0.97321429  0.16964286  1.0
  Ni  Ni66  1  0.66369048  0.30654762  0.16964286  1.0
  Ni  Ni67  1  0.66369048  0.63988095  0.16964286  1.0
  Ni  Ni68  1  0.66369048  0.97321429  0.16964286  1.0
  Ni  Ni69  1  0.99702381  0.30654762  0.16964286  1.0
  Ni  Ni70  1  0.99702381  0.63988095  0.16964286  1.0
  Ni  Ni71  1  0.99702381  0.97321429  0.16964286  1.0
  Ni  Ni72  1  0.26488095  0.17559524  0.15178571  1.0
  Ni  Ni73  1  0.26488095  0.50892857  0.15178571  1.0
  Ni  Ni74  1  0.26488095  0.84226190  0.15178571  1.0
  Ni  Ni75  1  0.59821429  0.17559524  0.15178571  1.0
  Ni  Ni76  1  0.59821429  0.50892857  0.15178571  1.0
  Ni  Ni77  1  0.59821429  0.84226190  0.15178571  1.0
  Ni  Ni78  1  0.93154762  0.17559524  0.15178571  1.0
  Ni  Ni79  1  0.93154762  0.50892857  0.15178571  1.0
  Ni  Ni80  1  0.93154762  0.84226190  0.15178571  1.0
  Ni  Ni81  1  0.19345238  0.03273810  0.22321429  1.0
  Ni  Ni82  1  0.19345238  0.36607143  0.22321429  1.0
  Ni  Ni83  1  0.19345238  0.69940476  0.22321429  1.0
  Ni  Ni84  1  0.52678571  0.03273810  0.22321429  1.0
  Ni  Ni85  1  0.52678571  0.36607143  0.22321429  1.0
  Ni  Ni86  1  0.52678571  0.69940476  0.22321429  1.0
  Ni  Ni87  1  0.86011905  0.03273810  0.22321429  1.0
  Ni  Ni88  1  0.86011905  0.36607143  0.22321429  1.0
  Ni  Ni89  1  0.86011905  0.69940476  0.22321429  1.0
  Ni  Ni90  1  0.32440476  0.29464286  0.25892857  1.0
  Ni  Ni91  1  0.32440476  0.62797619  0.25892857  1.0
  Ni  Ni92  1  0.32440476  0.96130952  0.25892857  1.0
  Ni  Ni93  1  0.65773810  0.29464286  0.25892857  1.0
  Ni  Ni94  1  0.65773810  0.62797619  0.25892857  1.0
  Ni  Ni95  1  0.65773810  0.96130952  0.25892857  1.0
  Ni  Ni96  1  0.99107143  0.29464286  0.25892857  1.0
  Ni  Ni97  1  0.99107143  0.62797619  0.25892857  1.0
  Ni  Ni98  1  0.99107143  0.96130952  0.25892857  1.0
  Ni  Ni99  1  0.06250000  0.10416667  0.18750000  1.0
  Ni  Ni100  1  0.06250000  0.43750000  0.18750000  1.0
  Ni  Ni101  1  0.06250000  0.77083333  0.18750000  1.0
  Ni  Ni102  1  0.39583333  0.10416667  0.18750000  1.0
  Ni  Ni103  1  0.39583333  0.43750000  0.18750000  1.0
  Ni  Ni104  1  0.39583333  0.77083333  0.18750000  1.0
  Ni  Ni105  1  0.72916667  0.10416667  0.18750000  1.0
  Ni  Ni106  1  0.72916667  0.43750000  0.18750000  1.0
  Ni  Ni107  1  0.72916667  0.77083333  0.18750000  1.0
  Ni  Ni108  1  0.11607143  0.21130952  0.38392857  1.0
  Ni  Ni109  1  0.11607143  0.54464286  0.38392857  1.0
  Ni  Ni110  1  0.11607143  0.87797619  0.38392857  1.0
  Ni  Ni111  1  0.44940476  0.21130952  0.38392857  1.0
  Ni  Ni112  1  0.44940476  0.54464286  0.38392857  1.0
  Ni  Ni113  1  0.44940476  0.87797619  0.38392857  1.0
  Ni  Ni114  1  0.78273810  0.21130952  0.38392857  1.0
  Ni  Ni115  1  0.78273810  0.54464286  0.38392857  1.0
  Ni  Ni116  1  0.78273810  0.87797619  0.38392857  1.0
  Ni  Ni117  1  0.18750000  0.02083333  0.31250000  1.0
  Ni  Ni118  1  0.18750000  0.35416667  0.31250000  1.0
  Ni  Ni119  1  0.18750000  0.68750000  0.31250000  1.0
  Ni  Ni120  1  0.52083333  0.02083333  0.31250000  1.0
  Ni  Ni121  1  0.52083333  0.35416667  0.31250000  1.0
  Ni  Ni122  1  0.52083333  0.68750000  0.31250000  1.0
  Ni  Ni123  1  0.85416667  0.02083333  0.31250000  1.0
  Ni  Ni124  1  0.85416667  0.35416667  0.31250000  1.0
  Ni  Ni125  1  0.85416667  0.68750000  0.31250000  1.0
  Ni  Ni126  1  0.12202381  0.22321429  0.29464286  1.0
  Ni  Ni127  1  0.12202381  0.55654762  0.29464286  1.0
  Ni  Ni128  1  0.12202381  0.88988095  0.29464286  1.0
  Ni  Ni129  1  0.45535714  0.22321429  0.29464286  1.0
  Ni  Ni130  1  0.45535714  0.55654762  0.29464286  1.0
  Ni  Ni131  1  0.45535714  0.88988095  0.29464286  1.0
  Ni  Ni132  1  0.78869048  0.22321429  0.29464286  1.0
  Ni  Ni133  1  0.78869048  0.55654762  0.29464286  1.0
  Ni  Ni134  1  0.78869048  0.88988095  0.29464286  1.0
  Ni  Ni135  1  0.05059524  0.08035714  0.36607143  1.0
  Ni  Ni136  1  0.05059524  0.41369048  0.36607143  1.0
  Ni  Ni137  1  0.05059524  0.74702381  0.36607143  1.0
  Ni  Ni138  1  0.38392857  0.08035714  0.36607143  1.0
  Ni  Ni139  1  0.38392857  0.41369048  0.36607143  1.0
  Ni  Ni140  1  0.38392857  0.74702381  0.36607143  1.0
  Ni  Ni141  1  0.71726190  0.08035714  0.36607143  1.0
  Ni  Ni142  1  0.71726190  0.41369048  0.36607143  1.0
  Ni  Ni143  1  0.71726190  0.74702381  0.36607143  1.0
  Ni  Ni144  1  0.18154762  0.00892857  0.40178571  1.0
  Ni  Ni145  1  0.18154762  0.34226190  0.40178571  1.0
  Ni  Ni146  1  0.18154762  0.67559524  0.40178571  1.0
  Ni  Ni147  1  0.51488095  0.00892857  0.40178571  1.0
  Ni  Ni148  1  0.51488095  0.34226190  0.40178571  1.0
  Ni  Ni149  1  0.51488095  0.67559524  0.40178571  1.0
  Ni  Ni150  1  0.84821429  0.00892857  0.40178571  1.0
  Ni  Ni151  1  0.84821429  0.34226190  0.40178571  1.0
  Ni  Ni152  1  0.84821429  0.67559524  0.40178571  1.0
  Ni  Ni153  1  0.25297619  0.15178571  0.33035714  1.0
  Ni  Ni154  1  0.25297619  0.48511905  0.33035714  1.0
  Ni  Ni155  1  0.25297619  0.81845238  0.33035714  1.0
  Ni  Ni156  1  0.58630952  0.15178571  0.33035714  1.0
  Ni  Ni157  1  0.58630952  0.48511905  0.33035714  1.0
  Ni  Ni158  1  0.58630952  0.81845238  0.33035714  1.0
  Ni  Ni159  1  0.91964286  0.15178571  0.33035714  1.0
  Ni  Ni160  1  0.91964286  0.48511905  0.33035714  1.0
  Ni  Ni161  1  0.91964286  0.81845238  0.33035714  1.0
  Ta  Ta162  1  0.27083333  0.18750000  0.06250000  1.0
  Ta  Ta163  1  0.27083333  0.52083333  0.06250000  1.0
  Ta  Ta164  1  0.27083333  0.85416667  0.06250000  1.0
  Ta  Ta165  1  0.60416667  0.18750000  0.06250000  1.0
  Ta  Ta166  1  0.60416667  0.52083333  0.06250000  1.0
  Ta  Ta167  1  0.60416667  0.85416667  0.06250000  1.0
  Ta  Ta168  1  0.93750000  0.18750000  0.06250000  1.0
  Ta  Ta169  1  0.93750000  0.52083333  0.06250000  1.0
  Ta  Ta170  1  0.93750000  0.85416667  0.06250000  1.0
  Ta  Ta171  1  0.19940476  0.04464286  0.13392857  1.0
  Ta  Ta172  1  0.19940476  0.37797619  0.13392857  1.0
  Ta  Ta173  1  0.19940476  0.71130952  0.13392857  1.0
  Ta  Ta174  1  0.53273810  0.04464286  0.13392857  1.0
  Ta  Ta175  1  0.53273810  0.37797619  0.13392857  1.0
  Ta  Ta176  1  0.53273810  0.71130952  0.13392857  1.0
  Ta  Ta177  1  0.86607143  0.04464286  0.13392857  1.0
  Ta  Ta178  1  0.86607143  0.37797619  0.13392857  1.0
  Ta  Ta179  1  0.86607143  0.71130952  0.13392857  1.0
  Ta  Ta180  1  0.12797619  0.23511905  0.20535714  1.0
  Ta  Ta181  1  0.12797619  0.56845238  0.20535714  1.0
  Ta  Ta182  1  0.12797619  0.90178571  0.20535714  1.0
  Ta  Ta183  1  0.46130952  0.23511905  0.20535714  1.0
  Ta  Ta184  1  0.46130952  0.56845238  0.20535714  1.0
  Ta  Ta185  1  0.46130952  0.90178571  0.20535714  1.0
  Ta  Ta186  1  0.79464286  0.23511905  0.20535714  1.0
  Ta  Ta187  1  0.79464286  0.56845238  0.20535714  1.0
  Ta  Ta188  1  0.79464286  0.90178571  0.20535714  1.0
  Ta  Ta189  1  0.05654762  0.09226190  0.27678571  1.0
  Ta  Ta190  1  0.05654762  0.42559524  0.27678571  1.0
  Ta  Ta191  1  0.05654762  0.75892857  0.27678571  1.0
  Ta  Ta192  1  0.38988095  0.09226190  0.27678571  1.0
  Ta  Ta193  1  0.38988095  0.42559524  0.27678571  1.0
  Ta  Ta194  1  0.38988095  0.75892857  0.27678571  1.0
  Ta  Ta195  1  0.72321429  0.09226190  0.27678571  1.0
  Ta  Ta196  1  0.72321429  0.42559524  0.27678571  1.0
  Ta  Ta197  1  0.72321429  0.75892857  0.27678571  1.0
  Ta  Ta198  1  0.31845238  0.28273810  0.34821429  1.0
  Ta  Ta199  1  0.31845238  0.61607143  0.34821429  1.0
  Ta  Ta200  1  0.31845238  0.94940476  0.34821429  1.0
  Ta  Ta201  1  0.65178571  0.28273810  0.34821429  1.0
  Ta  Ta202  1  0.65178571  0.61607143  0.34821429  1.0
  Ta  Ta203  1  0.65178571  0.94940476  0.34821429  1.0
  Ta  Ta204  1  0.98511905  0.28273810  0.34821429  1.0
  Ta  Ta205  1  0.98511905  0.61607143  0.34821429  1.0
  Ta  Ta206  1  0.98511905  0.94940476  0.34821429  1.0
  Ta  Ta207  1  0.24702381  0.13988095  0.41964286  1.0
  Ta  Ta208  1  0.24702381  0.47321429  0.41964286  1.0
  Ta  Ta209  1  0.24702381  0.80654762  0.41964286  1.0
  Ta  Ta210  1  0.58035714  0.13988095  0.41964286  1.0
  Ta  Ta211  1  0.58035714  0.47321429  0.41964286  1.0
  Ta  Ta212  1  0.58035714  0.80654762  0.41964286  1.0
  Ta  Ta213  1  0.91369048  0.13988095  0.41964286  1.0
  Ta  Ta214  1  0.91369048  0.47321429  0.41964286  1.0
  Ta  Ta215  1  0.91369048  0.80654762  0.41964286  1.0
