# generated using pymatgen
data_Tc3Ni
_symmetry_space_group_name_H-M   'P 1'
_cell_length_a   20.73640608
_cell_length_b   30.61423770
_cell_length_c   29.78085690
_cell_angle_alpha   97.71902165
_cell_angle_beta   92.38928402
_cell_angle_gamma   109.09688734
_symmetry_Int_Tables_number   1
_chemical_formula_structural   Tc3Ni
_chemical_formula_sum   'Tc432 Ni144'
_cell_volume   17629.24942058
_cell_formula_units_Z   144
loop_
 _symmetry_equiv_pos_site_id
 _symmetry_equiv_pos_as_xyz
  1  'x, y, z'
loop_
 _atom_site_type_symbol
 _atom_site_label
 _atom_site_symmetry_multiplicity
 _atom_site_fract_x
 _atom_site_fract_y
 _atom_site_fract_z
 _atom_site_occupancy
  Ni  Ni0  1  0.21604938  0.23148148  0.00462963  1.0
  Ni  Ni1  1  0.21604938  0.56481481  0.00462963  1.0
  Ni  Ni2  1  0.21604938  0.89814815  0.00462963  1.0
  Ni  Ni3  1  0.54938272  0.23148148  0.00462963  1.0
  Ni  Ni4  1  0.54938272  0.56481481  0.00462963  1.0
  Ni  Ni5  1  0.54938272  0.89814815  0.00462963  1.0
  Ni  Ni6  1  0.88271605  0.23148148  0.00462963  1.0
  Ni  Ni7  1  0.88271605  0.56481481  0.00462963  1.0
  Ni  Ni8  1  0.88271605  0.89814815  0.00462963  1.0
  Ni  Ni9  1  0.14197531  0.00925926  0.06018519  1.0
  Ni  Ni10  1  0.14197531  0.34259259  0.06018519  1.0
  Ni  Ni11  1  0.14197531  0.67592593  0.06018519  1.0
  Ni  Ni12  1  0.47530864  0.00925926  0.06018519  1.0
  Ni  Ni13  1  0.47530864  0.34259259  0.06018519  1.0
  Ni  Ni14  1  0.47530864  0.67592593  0.06018519  1.0
  Ni  Ni15  1  0.80864198  0.00925926  0.06018519  1.0
  Ni  Ni16  1  0.80864198  0.34259259  0.06018519  1.0
  Ni  Ni17  1  0.80864198  0.67592593  0.06018519  1.0
  Ni  Ni18  1  0.30246914  0.32407407  0.10648148  1.0
  Ni  Ni19  1  0.30246914  0.65740741  0.10648148  1.0
  Ni  Ni20  1  0.30246914  0.99074074  0.10648148  1.0
  Ni  Ni21  1  0.63580247  0.32407407  0.10648148  1.0
  Ni  Ni22  1  0.63580247  0.65740741  0.10648148  1.0
  Ni  Ni23  1  0.63580247  0.99074074  0.10648148  1.0
  Ni  Ni24  1  0.96913580  0.32407407  0.10648148  1.0
  Ni  Ni25  1  0.96913580  0.65740741  0.10648148  1.0
  Ni  Ni26  1  0.96913580  0.99074074  0.10648148  1.0
  Ni  Ni27  1  0.04320988  0.21296296  0.05092593  1.0
  Ni  Ni28  1  0.04320988  0.54629630  0.05092593  1.0
  Ni  Ni29  1  0.04320988  0.87962963  0.05092593  1.0
  Ni  Ni30  1  0.37654321  0.21296296  0.05092593  1.0
  Ni  Ni31  1  0.37654321  0.54629630  0.05092593  1.0
  Ni  Ni32  1  0.37654321  0.87962963  0.05092593  1.0
  Ni  Ni33  1  0.70987654  0.21296296  0.05092593  1.0
  Ni  Ni34  1  0.70987654  0.54629630  0.05092593  1.0
  Ni  Ni35  1  0.70987654  0.87962963  0.05092593  1.0
  Ni  Ni36  1  0.06790123  0.12037037  0.11574074  1.0
  Ni  Ni37  1  0.06790123  0.45370370  0.11574074  1.0
  Ni  Ni38  1  0.06790123  0.78703704  0.11574074  1.0
  Ni  Ni39  1  0.40123457  0.12037037  0.11574074  1.0
  Ni  Ni40  1  0.40123457  0.45370370  0.11574074  1.0
  Ni  Ni41  1  0.40123457  0.78703704  0.11574074  1.0
  Ni  Ni42  1  0.73456790  0.12037037  0.11574074  1.0
  Ni  Ni43  1  0.73456790  0.45370370  0.11574074  1.0
  Ni  Ni44  1  0.73456790  0.78703704  0.11574074  1.0
  Ni  Ni45  1  0.32716049  0.23148148  0.17129630  1.0
  Ni  Ni46  1  0.32716049  0.56481481  0.17129630  1.0
  Ni  Ni47  1  0.32716049  0.89814815  0.17129630  1.0
  Ni  Ni48  1  0.66049383  0.23148148  0.17129630  1.0
  Ni  Ni49  1  0.66049383  0.56481481  0.17129630  1.0
  Ni  Ni50  1  0.66049383  0.89814815  0.17129630  1.0
  Ni  Ni51  1  0.99382716  0.23148148  0.17129630  1.0
  Ni  Ni52  1  0.99382716  0.56481481  0.17129630  1.0
  Ni  Ni53  1  0.99382716  0.89814815  0.17129630  1.0
  Ni  Ni54  1  0.15432099  0.21296296  0.21759259  1.0
  Ni  Ni55  1  0.15432099  0.54629630  0.21759259  1.0
  Ni  Ni56  1  0.15432099  0.87962963  0.21759259  1.0
  Ni  Ni57  1  0.48765432  0.21296296  0.21759259  1.0
  Ni  Ni58  1  0.48765432  0.54629630  0.21759259  1.0
  Ni  Ni59  1  0.48765432  0.87962963  0.21759259  1.0
  Ni  Ni60  1  0.82098765  0.21296296  0.21759259  1.0
  Ni  Ni61  1  0.82098765  0.54629630  0.21759259  1.0
  Ni  Ni62  1  0.82098765  0.87962963  0.21759259  1.0
  Ni  Ni63  1  0.22839506  0.10185185  0.16203704  1.0
  Ni  Ni64  1  0.22839506  0.43518519  0.16203704  1.0
  Ni  Ni65  1  0.22839506  0.76851852  0.16203704  1.0
  Ni  Ni66  1  0.56172840  0.10185185  0.16203704  1.0
  Ni  Ni67  1  0.56172840  0.43518519  0.16203704  1.0
  Ni  Ni68  1  0.56172840  0.76851852  0.16203704  1.0
  Ni  Ni69  1  0.89506173  0.10185185  0.16203704  1.0
  Ni  Ni70  1  0.89506173  0.43518519  0.16203704  1.0
  Ni  Ni71  1  0.89506173  0.76851852  0.16203704  1.0
  Ni  Ni72  1  0.25308642  0.00925926  0.22685185  1.0
  Ni  Ni73  1  0.25308642  0.34259259  0.22685185  1.0
  Ni  Ni74  1  0.25308642  0.67592593  0.22685185  1.0
  Ni  Ni75  1  0.58641975  0.00925926  0.22685185  1.0
  Ni  Ni76  1  0.58641975  0.34259259  0.22685185  1.0
  Ni  Ni77  1  0.58641975  0.67592593  0.22685185  1.0
  Ni  Ni78  1  0.91975309  0.00925926  0.22685185  1.0
  Ni  Ni79  1  0.91975309  0.34259259  0.22685185  1.0
  Ni  Ni80  1  0.91975309  0.67592593  0.22685185  1.0
  Ni  Ni81  1  0.17901235  0.12037037  0.28240741  1.0
  Ni  Ni82  1  0.17901235  0.45370370  0.28240741  1.0
  Ni  Ni83  1  0.17901235  0.78703704  0.28240741  1.0
  Ni  Ni84  1  0.51234568  0.12037037  0.28240741  1.0
  Ni  Ni85  1  0.51234568  0.45370370  0.28240741  1.0
  Ni  Ni86  1  0.51234568  0.78703704  0.28240741  1.0
  Ni  Ni87  1  0.84567901  0.12037037  0.28240741  1.0
  Ni  Ni88  1  0.84567901  0.45370370  0.28240741  1.0
  Ni  Ni89  1  0.84567901  0.78703704  0.28240741  1.0
  Ni  Ni90  1  0.00617284  0.10185185  0.32870370  1.0
  Ni  Ni91  1  0.00617284  0.43518519  0.32870370  1.0
  Ni  Ni92  1  0.00617284  0.76851852  0.32870370  1.0
  Ni  Ni93  1  0.33950617  0.10185185  0.32870370  1.0
  Ni  Ni94  1  0.33950617  0.43518519  0.32870370  1.0
  Ni  Ni95  1  0.33950617  0.76851852  0.32870370  1.0
  Ni  Ni96  1  0.67283951  0.10185185  0.32870370  1.0
  Ni  Ni97  1  0.67283951  0.43518519  0.32870370  1.0
  Ni  Ni98  1  0.67283951  0.76851852  0.32870370  1.0
  Ni  Ni99  1  0.08024691  0.32407407  0.27314815  1.0
  Ni  Ni100  1  0.08024691  0.65740741  0.27314815  1.0
  Ni  Ni101  1  0.08024691  0.99074074  0.27314815  1.0
  Ni  Ni102  1  0.41358025  0.32407407  0.27314815  1.0
  Ni  Ni103  1  0.41358025  0.65740741  0.27314815  1.0
  Ni  Ni104  1  0.41358025  0.99074074  0.27314815  1.0
  Ni  Ni105  1  0.74691358  0.32407407  0.27314815  1.0
  Ni  Ni106  1  0.74691358  0.65740741  0.27314815  1.0
  Ni  Ni107  1  0.74691358  0.99074074  0.27314815  1.0
  Ni  Ni108  1  0.10493827  0.23148148  0.33796296  1.0
  Ni  Ni109  1  0.10493827  0.56481481  0.33796296  1.0
  Ni  Ni110  1  0.10493827  0.89814815  0.33796296  1.0
  Ni  Ni111  1  0.43827160  0.23148148  0.33796296  1.0
  Ni  Ni112  1  0.43827160  0.56481481  0.33796296  1.0
  Ni  Ni113  1  0.43827160  0.89814815  0.33796296  1.0
  Ni  Ni114  1  0.77160494  0.23148148  0.33796296  1.0
  Ni  Ni115  1  0.77160494  0.56481481  0.33796296  1.0
  Ni  Ni116  1  0.77160494  0.89814815  0.33796296  1.0
  Ni  Ni117  1  0.03086420  0.00925926  0.39351852  1.0
  Ni  Ni118  1  0.03086420  0.34259259  0.39351852  1.0
  Ni  Ni119  1  0.03086420  0.67592593  0.39351852  1.0
  Ni  Ni120  1  0.36419753  0.00925926  0.39351852  1.0
  Ni  Ni121  1  0.36419753  0.34259259  0.39351852  1.0
  Ni  Ni122  1  0.36419753  0.67592593  0.39351852  1.0
  Ni  Ni123  1  0.69753086  0.00925926  0.39351852  1.0
  Ni  Ni124  1  0.69753086  0.34259259  0.39351852  1.0
  Ni  Ni125  1  0.69753086  0.67592593  0.39351852  1.0
  Ni  Ni126  1  0.19135802  0.32407407  0.43981481  1.0
  Ni  Ni127  1  0.19135802  0.65740741  0.43981481  1.0
  Ni  Ni128  1  0.19135802  0.99074074  0.43981481  1.0
  Ni  Ni129  1  0.52469136  0.32407407  0.43981481  1.0
  Ni  Ni130  1  0.52469136  0.65740741  0.43981481  1.0
  Ni  Ni131  1  0.52469136  0.99074074  0.43981481  1.0
  Ni  Ni132  1  0.85802469  0.32407407  0.43981481  1.0
  Ni  Ni133  1  0.85802469  0.65740741  0.43981481  1.0
  Ni  Ni134  1  0.85802469  0.99074074  0.43981481  1.0
  Ni  Ni135  1  0.26543210  0.21296296  0.38425926  1.0
  Ni  Ni136  1  0.26543210  0.54629630  0.38425926  1.0
  Ni  Ni137  1  0.26543210  0.87962963  0.38425926  1.0
  Ni  Ni138  1  0.59876543  0.21296296  0.38425926  1.0
  Ni  Ni139  1  0.59876543  0.54629630  0.38425926  1.0
  Ni  Ni140  1  0.59876543  0.87962963  0.38425926  1.0
  Ni  Ni141  1  0.93209877  0.21296296  0.38425926  1.0
  Ni  Ni142  1  0.93209877  0.54629630  0.38425926  1.0
  Ni  Ni143  1  0.93209877  0.87962963  0.38425926  1.0
  Tc  Tc144  1  0.24690513  0.15738206  0.02321153  1.0
  Tc  Tc145  1  0.24690513  0.49071539  0.02321153  1.0
  Tc  Tc146  1  0.24690513  0.82404872  0.02321153  1.0
  Tc  Tc147  1  0.58023846  0.15738206  0.02321153  1.0
  Tc  Tc148  1  0.58023846  0.49071539  0.02321153  1.0
  Tc  Tc149  1  0.58023846  0.82404872  0.02321153  1.0
  Tc  Tc150  1  0.91357180  0.15738206  0.02321153  1.0
  Tc  Tc151  1  0.91357180  0.49071539  0.02321153  1.0
  Tc  Tc152  1  0.91357180  0.82404872  0.02321153  1.0
  Tc  Tc153  1  0.17283106  0.26849317  0.07876708  1.0
  Tc  Tc154  1  0.17283106  0.60182650  0.07876708  1.0
  Tc  Tc155  1  0.17283106  0.93515983  0.07876708  1.0
  Tc  Tc156  1  0.50616439  0.26849317  0.07876708  1.0
  Tc  Tc157  1  0.50616439  0.60182650  0.07876708  1.0
  Tc  Tc158  1  0.50616439  0.93515983  0.07876708  1.0
  Tc  Tc159  1  0.83949772  0.26849317  0.07876708  1.0
  Tc  Tc160  1  0.83949772  0.60182650  0.07876708  1.0
  Tc  Tc161  1  0.83949772  0.93515983  0.07876708  1.0
  Tc  Tc162  1  0.14205981  0.17595128  0.06023589  1.0
  Tc  Tc163  1  0.14205981  0.50928461  0.06023589  1.0
  Tc  Tc164  1  0.14205981  0.84261794  0.06023589  1.0
  Tc  Tc165  1  0.47539315  0.17595128  0.06023589  1.0
  Tc  Tc166  1  0.47539315  0.50928461  0.06023589  1.0
  Tc  Tc167  1  0.47539315  0.84261794  0.06023589  1.0
  Tc  Tc168  1  0.80872648  0.17595128  0.06023589  1.0
  Tc  Tc169  1  0.80872648  0.50928461  0.06023589  1.0
  Tc  Tc170  1  0.80872648  0.84261794  0.06023589  1.0
  Tc  Tc171  1  0.21613389  0.06484017  0.00468033  1.0
  Tc  Tc172  1  0.21613389  0.39817350  0.00468033  1.0
  Tc  Tc173  1  0.21613389  0.73150683  0.00468033  1.0
  Tc  Tc174  1  0.54946722  0.06484017  0.00468033  1.0
  Tc  Tc175  1  0.54946722  0.39817350  0.00468033  1.0
  Tc  Tc176  1  0.54946722  0.73150683  0.00468033  1.0
  Tc  Tc177  1  0.88280056  0.06484017  0.00468033  1.0
  Tc  Tc178  1  0.88280056  0.39817350  0.00468033  1.0
  Tc  Tc179  1  0.88280056  0.73150683  0.00468033  1.0
  Tc  Tc180  1  0.01225272  0.12031967  0.03242008  1.0
  Tc  Tc181  1  0.01225272  0.45365300  0.03242008  1.0
  Tc  Tc182  1  0.01225272  0.78698633  0.03242008  1.0
  Tc  Tc183  1  0.34558606  0.12031967  0.03242008  1.0
  Tc  Tc184  1  0.34558606  0.45365300  0.03242008  1.0
  Tc  Tc185  1  0.34558606  0.78698633  0.03242008  1.0
  Tc  Tc186  1  0.67891939  0.12031967  0.03242008  1.0
  Tc  Tc187  1  0.67891939  0.45365300  0.03242008  1.0
  Tc  Tc188  1  0.67891939  0.78698633  0.03242008  1.0
  Tc  Tc189  1  0.27151198  0.23143078  0.08797564  1.0
  Tc  Tc190  1  0.27151198  0.56476411  0.08797564  1.0
  Tc  Tc191  1  0.27151198  0.89809744  0.08797564  1.0
  Tc  Tc192  1  0.60484531  0.23143078  0.08797564  1.0
  Tc  Tc193  1  0.60484531  0.56476411  0.08797564  1.0
  Tc  Tc194  1  0.60484531  0.89809744  0.08797564  1.0
  Tc  Tc195  1  0.93817865  0.23143078  0.08797564  1.0
  Tc  Tc196  1  0.93817865  0.56476411  0.08797564  1.0
  Tc  Tc197  1  0.93817865  0.89809744  0.08797564  1.0
  Tc  Tc198  1  0.27161339  0.06484017  0.08789958  1.0
  Tc  Tc199  1  0.27161339  0.39817350  0.08789958  1.0
  Tc  Tc200  1  0.27161339  0.73150683  0.08789958  1.0
  Tc  Tc201  1  0.60494672  0.06484017  0.08789958  1.0
  Tc  Tc202  1  0.60494672  0.39817350  0.08789958  1.0
  Tc  Tc203  1  0.60494672  0.73150683  0.08789958  1.0
  Tc  Tc204  1  0.93828006  0.06484017  0.08789958  1.0
  Tc  Tc205  1  0.93828006  0.39817350  0.08789958  1.0
  Tc  Tc206  1  0.93828006  0.73150683  0.08789958  1.0
  Tc  Tc207  1  0.01235413  0.28706239  0.03234403  1.0
  Tc  Tc208  1  0.01235413  0.62039572  0.03234403  1.0
  Tc  Tc209  1  0.01235413  0.95372906  0.03234403  1.0
  Tc  Tc210  1  0.34568746  0.28706239  0.03234403  1.0
  Tc  Tc211  1  0.34568746  0.62039572  0.03234403  1.0
  Tc  Tc212  1  0.34568746  0.95372906  0.03234403  1.0
  Tc  Tc213  1  0.67902080  0.28706239  0.03234403  1.0
  Tc  Tc214  1  0.67902080  0.62039572  0.03234403  1.0
  Tc  Tc215  1  0.67902080  0.95372906  0.03234403  1.0
  Tc  Tc216  1  0.04312537  0.04627094  0.05087522  1.0
  Tc  Tc217  1  0.04312537  0.37960428  0.05087522  1.0
  Tc  Tc218  1  0.04312537  0.71293761  0.05087522  1.0
  Tc  Tc219  1  0.37645870  0.04627094  0.05087522  1.0
  Tc  Tc220  1  0.37645870  0.37960428  0.05087522  1.0
  Tc  Tc221  1  0.37645870  0.71293761  0.05087522  1.0
  Tc  Tc222  1  0.70979204  0.04627094  0.05087522  1.0
  Tc  Tc223  1  0.70979204  0.37960428  0.05087522  1.0
  Tc  Tc224  1  0.70979204  0.71293761  0.05087522  1.0
  Tc  Tc225  1  0.30238463  0.15738206  0.10643078  1.0
  Tc  Tc226  1  0.30238463  0.49071539  0.10643078  1.0
  Tc  Tc227  1  0.30238463  0.82404872  0.10643078  1.0
  Tc  Tc228  1  0.63571796  0.15738206  0.10643078  1.0
  Tc  Tc229  1  0.63571796  0.49071539  0.10643078  1.0
  Tc  Tc230  1  0.63571796  0.82404872  0.10643078  1.0
  Tc  Tc231  1  0.96905130  0.15738206  0.10643078  1.0
  Tc  Tc232  1  0.96905130  0.49071539  0.10643078  1.0
  Tc  Tc233  1  0.96905130  0.82404872  0.10643078  1.0
  Tc  Tc234  1  0.17293246  0.10190256  0.07869103  1.0
  Tc  Tc235  1  0.17293246  0.43523589  0.07869103  1.0
  Tc  Tc236  1  0.17293246  0.76856922  0.07869103  1.0
  Tc  Tc237  1  0.50626580  0.10190256  0.07869103  1.0
  Tc  Tc238  1  0.50626580  0.43523589  0.07869103  1.0
  Tc  Tc239  1  0.50626580  0.76856922  0.07869103  1.0
  Tc  Tc240  1  0.83959913  0.10190256  0.07869103  1.0
  Tc  Tc241  1  0.83959913  0.43523589  0.07869103  1.0
  Tc  Tc242  1  0.83959913  0.76856922  0.07869103  1.0
  Tc  Tc243  1  0.24700654  0.32412478  0.02313547  1.0
  Tc  Tc244  1  0.24700654  0.65745811  0.02313547  1.0
  Tc  Tc245  1  0.24700654  0.99079144  0.02313547  1.0
  Tc  Tc246  1  0.58033987  0.32412478  0.02313547  1.0
  Tc  Tc247  1  0.58033987  0.65745811  0.02313547  1.0
  Tc  Tc248  1  0.58033987  0.99079144  0.02313547  1.0
  Tc  Tc249  1  0.91367320  0.32412478  0.02313547  1.0
  Tc  Tc250  1  0.91367320  0.65745811  0.02313547  1.0
  Tc  Tc251  1  0.91367320  0.99079144  0.02313547  1.0
  Tc  Tc252  1  0.09875698  0.04627094  0.13432264  1.0
  Tc  Tc253  1  0.09875698  0.37960428  0.13432264  1.0
  Tc  Tc254  1  0.09875698  0.71293761  0.13432264  1.0
  Tc  Tc255  1  0.43209031  0.04627094  0.13432264  1.0
  Tc  Tc256  1  0.43209031  0.37960428  0.13432264  1.0
  Tc  Tc257  1  0.43209031  0.71293761  0.13432264  1.0
  Tc  Tc258  1  0.76542365  0.04627094  0.13432264  1.0
  Tc  Tc259  1  0.76542365  0.37960428  0.13432264  1.0
  Tc  Tc260  1  0.76542365  0.71293761  0.13432264  1.0
  Tc  Tc261  1  0.02468291  0.15738206  0.18987819  1.0
  Tc  Tc262  1  0.02468291  0.49071539  0.18987819  1.0
  Tc  Tc263  1  0.02468291  0.82404872  0.18987819  1.0
  Tc  Tc264  1  0.35801624  0.15738206  0.18987819  1.0
  Tc  Tc265  1  0.35801624  0.49071539  0.18987819  1.0
  Tc  Tc266  1  0.35801624  0.82404872  0.18987819  1.0
  Tc  Tc267  1  0.69134957  0.15738206  0.18987819  1.0
  Tc  Tc268  1  0.69134957  0.49071539  0.18987819  1.0
  Tc  Tc269  1  0.69134957  0.82404872  0.18987819  1.0
  Tc  Tc270  1  0.32724500  0.06484017  0.17134700  1.0
  Tc  Tc271  1  0.32724500  0.39817350  0.17134700  1.0
  Tc  Tc272  1  0.32724500  0.73150683  0.17134700  1.0
  Tc  Tc273  1  0.66057833  0.06484017  0.17134700  1.0
  Tc  Tc274  1  0.66057833  0.39817350  0.17134700  1.0
  Tc  Tc275  1  0.66057833  0.73150683  0.17134700  1.0
  Tc  Tc276  1  0.99391167  0.06484017  0.17134700  1.0
  Tc  Tc277  1  0.99391167  0.39817350  0.17134700  1.0
  Tc  Tc278  1  0.99391167  0.73150683  0.17134700  1.0
  Tc  Tc279  1  0.06798574  0.28706239  0.11579144  1.0
  Tc  Tc280  1  0.06798574  0.62039572  0.11579144  1.0
  Tc  Tc281  1  0.06798574  0.95372906  0.11579144  1.0
  Tc  Tc282  1  0.40131907  0.28706239  0.11579144  1.0
  Tc  Tc283  1  0.40131907  0.62039572  0.11579144  1.0
  Tc  Tc284  1  0.40131907  0.95372906  0.11579144  1.0
  Tc  Tc285  1  0.73465241  0.28706239  0.11579144  1.0
  Tc  Tc286  1  0.73465241  0.62039572  0.11579144  1.0
  Tc  Tc287  1  0.73465241  0.95372906  0.11579144  1.0
  Tc  Tc288  1  0.19743791  0.00920856  0.14353119  1.0
  Tc  Tc289  1  0.19743791  0.34254189  0.14353119  1.0
  Tc  Tc290  1  0.19743791  0.67587522  0.14353119  1.0
  Tc  Tc291  1  0.53077124  0.00920856  0.14353119  1.0
  Tc  Tc292  1  0.53077124  0.34254189  0.14353119  1.0
  Tc  Tc293  1  0.53077124  0.67587522  0.14353119  1.0
  Tc  Tc294  1  0.86410457  0.00920856  0.14353119  1.0
  Tc  Tc295  1  0.86410457  0.34254189  0.14353119  1.0
  Tc  Tc296  1  0.86410457  0.67587522  0.14353119  1.0
  Tc  Tc297  1  0.12336383  0.12031967  0.19908675  1.0
  Tc  Tc298  1  0.12336383  0.45365300  0.19908675  1.0
  Tc  Tc299  1  0.12336383  0.78698633  0.19908675  1.0
  Tc  Tc300  1  0.45669717  0.12031967  0.19908675  1.0
  Tc  Tc301  1  0.45669717  0.45365300  0.19908675  1.0
  Tc  Tc302  1  0.45669717  0.78698633  0.19908675  1.0
  Tc  Tc303  1  0.79003050  0.12031967  0.19908675  1.0
  Tc  Tc304  1  0.79003050  0.45365300  0.19908675  1.0
  Tc  Tc305  1  0.79003050  0.78698633  0.19908675  1.0
  Tc  Tc306  1  0.12346524  0.28706239  0.19901069  1.0
  Tc  Tc307  1  0.12346524  0.62039572  0.19901069  1.0
  Tc  Tc308  1  0.12346524  0.95372906  0.19901069  1.0
  Tc  Tc309  1  0.45679857  0.28706239  0.19901069  1.0
  Tc  Tc310  1  0.45679857  0.62039572  0.19901069  1.0
  Tc  Tc311  1  0.45679857  0.95372906  0.19901069  1.0
  Tc  Tc312  1  0.79013191  0.28706239  0.19901069  1.0
  Tc  Tc313  1  0.79013191  0.62039572  0.19901069  1.0
  Tc  Tc314  1  0.79013191  0.95372906  0.19901069  1.0
  Tc  Tc315  1  0.19753931  0.17595128  0.14345514  1.0
  Tc  Tc316  1  0.19753931  0.50928461  0.14345514  1.0
  Tc  Tc317  1  0.19753931  0.84261794  0.14345514  1.0
  Tc  Tc318  1  0.53087265  0.17595128  0.14345514  1.0
  Tc  Tc319  1  0.53087265  0.50928461  0.14345514  1.0
  Tc  Tc320  1  0.53087265  0.84261794  0.14345514  1.0
  Tc  Tc321  1  0.86420598  0.17595128  0.14345514  1.0
  Tc  Tc322  1  0.86420598  0.50928461  0.14345514  1.0
  Tc  Tc323  1  0.86420598  0.84261794  0.14345514  1.0
  Tc  Tc324  1  0.22831056  0.26849317  0.16198633  1.0
  Tc  Tc325  1  0.22831056  0.60182650  0.16198633  1.0
  Tc  Tc326  1  0.22831056  0.93515983  0.16198633  1.0
  Tc  Tc327  1  0.56164389  0.26849317  0.16198633  1.0
  Tc  Tc328  1  0.56164389  0.60182650  0.16198633  1.0
  Tc  Tc329  1  0.56164389  0.93515983  0.16198633  1.0
  Tc  Tc330  1  0.89497722  0.26849317  0.16198633  1.0
  Tc  Tc331  1  0.89497722  0.60182650  0.16198633  1.0
  Tc  Tc332  1  0.89497722  0.93515983  0.16198633  1.0
  Tc  Tc333  1  0.15423648  0.04627094  0.21754189  1.0
  Tc  Tc334  1  0.15423648  0.37960428  0.21754189  1.0
  Tc  Tc335  1  0.15423648  0.71293761  0.21754189  1.0
  Tc  Tc336  1  0.48756981  0.04627094  0.21754189  1.0
  Tc  Tc337  1  0.48756981  0.37960428  0.21754189  1.0
  Tc  Tc338  1  0.48756981  0.71293761  0.21754189  1.0
  Tc  Tc339  1  0.82090315  0.04627094  0.21754189  1.0
  Tc  Tc340  1  0.82090315  0.37960428  0.21754189  1.0
  Tc  Tc341  1  0.82090315  0.71293761  0.21754189  1.0
  Tc  Tc342  1  0.02478431  0.32412478  0.18980214  1.0
  Tc  Tc343  1  0.02478431  0.65745811  0.18980214  1.0
  Tc  Tc344  1  0.02478431  0.99079144  0.18980214  1.0
  Tc  Tc345  1  0.35811765  0.32412478  0.18980214  1.0
  Tc  Tc346  1  0.35811765  0.65745811  0.18980214  1.0
  Tc  Tc347  1  0.35811765  0.99079144  0.18980214  1.0
  Tc  Tc348  1  0.69145098  0.32412478  0.18980214  1.0
  Tc  Tc349  1  0.69145098  0.65745811  0.18980214  1.0
  Tc  Tc350  1  0.69145098  0.99079144  0.18980214  1.0
  Tc  Tc351  1  0.09885839  0.21301367  0.13424658  1.0
  Tc  Tc352  1  0.09885839  0.54634700  0.13424658  1.0
  Tc  Tc353  1  0.09885839  0.87968033  0.13424658  1.0
  Tc  Tc354  1  0.43219172  0.21301367  0.13424658  1.0
  Tc  Tc355  1  0.43219172  0.54634700  0.13424658  1.0
  Tc  Tc356  1  0.43219172  0.87968033  0.13424658  1.0
  Tc  Tc357  1  0.76552506  0.21301367  0.13424658  1.0
  Tc  Tc358  1  0.76552506  0.54634700  0.13424658  1.0
  Tc  Tc359  1  0.76552506  0.87968033  0.13424658  1.0
  Tc  Tc360  1  0.28394217  0.26849317  0.24543375  1.0
  Tc  Tc361  1  0.28394217  0.60182650  0.24543375  1.0
  Tc  Tc362  1  0.28394217  0.93515983  0.24543375  1.0
  Tc  Tc363  1  0.61727550  0.26849317  0.24543375  1.0
  Tc  Tc364  1  0.61727550  0.60182650  0.24543375  1.0
  Tc  Tc365  1  0.61727550  0.93515983  0.24543375  1.0
  Tc  Tc366  1  0.95060883  0.26849317  0.24543375  1.0
  Tc  Tc367  1  0.95060883  0.60182650  0.24543375  1.0
  Tc  Tc368  1  0.95060883  0.93515983  0.24543375  1.0
  Tc  Tc369  1  0.20986809  0.04627094  0.30098931  1.0
  Tc  Tc370  1  0.20986809  0.37960428  0.30098931  1.0
  Tc  Tc371  1  0.20986809  0.71293761  0.30098931  1.0
  Tc  Tc372  1  0.54320143  0.04627094  0.30098931  1.0
  Tc  Tc373  1  0.54320143  0.37960428  0.30098931  1.0
  Tc  Tc374  1  0.54320143  0.71293761  0.30098931  1.0
  Tc  Tc375  1  0.87653476  0.04627094  0.30098931  1.0
  Tc  Tc376  1  0.87653476  0.37960428  0.30098931  1.0
  Tc  Tc377  1  0.87653476  0.71293761  0.30098931  1.0
  Tc  Tc378  1  0.17909685  0.28706239  0.28245811  1.0
  Tc  Tc379  1  0.17909685  0.62039572  0.28245811  1.0
  Tc  Tc380  1  0.17909685  0.95372906  0.28245811  1.0
  Tc  Tc381  1  0.51243019  0.28706239  0.28245811  1.0
  Tc  Tc382  1  0.51243019  0.62039572  0.28245811  1.0
  Tc  Tc383  1  0.51243019  0.95372906  0.28245811  1.0
  Tc  Tc384  1  0.84576352  0.28706239  0.28245811  1.0
  Tc  Tc385  1  0.84576352  0.62039572  0.28245811  1.0
  Tc  Tc386  1  0.84576352  0.95372906  0.28245811  1.0
  Tc  Tc387  1  0.25317093  0.17595128  0.22690256  1.0
  Tc  Tc388  1  0.25317093  0.50928461  0.22690256  1.0
  Tc  Tc389  1  0.25317093  0.84261794  0.22690256  1.0
  Tc  Tc390  1  0.58650426  0.17595128  0.22690256  1.0
  Tc  Tc391  1  0.58650426  0.50928461  0.22690256  1.0
  Tc  Tc392  1  0.58650426  0.84261794  0.22690256  1.0
  Tc  Tc393  1  0.91983759  0.17595128  0.22690256  1.0
  Tc  Tc394  1  0.91983759  0.50928461  0.22690256  1.0
  Tc  Tc395  1  0.91983759  0.84261794  0.22690256  1.0
  Tc  Tc396  1  0.04928976  0.23143078  0.25464231  1.0
  Tc  Tc397  1  0.04928976  0.56476411  0.25464231  1.0
  Tc  Tc398  1  0.04928976  0.89809744  0.25464231  1.0
  Tc  Tc399  1  0.38262309  0.23143078  0.25464231  1.0
  Tc  Tc400  1  0.38262309  0.56476411  0.25464231  1.0
  Tc  Tc401  1  0.38262309  0.89809744  0.25464231  1.0
  Tc  Tc402  1  0.71595643  0.23143078  0.25464231  1.0
  Tc  Tc403  1  0.71595643  0.56476411  0.25464231  1.0
  Tc  Tc404  1  0.71595643  0.89809744  0.25464231  1.0
  Tc  Tc405  1  0.30854902  0.00920856  0.31019786  1.0
  Tc  Tc406  1  0.30854902  0.34254189  0.31019786  1.0
  Tc  Tc407  1  0.30854902  0.67587522  0.31019786  1.0
  Tc  Tc408  1  0.64188235  0.00920856  0.31019786  1.0
  Tc  Tc409  1  0.64188235  0.34254189  0.31019786  1.0
  Tc  Tc410  1  0.64188235  0.67587522  0.31019786  1.0
  Tc  Tc411  1  0.97521569  0.00920856  0.31019786  1.0
  Tc  Tc412  1  0.97521569  0.34254189  0.31019786  1.0
  Tc  Tc413  1  0.97521569  0.67587522  0.31019786  1.0
  Tc  Tc414  1  0.30865043  0.17595128  0.31012181  1.0
  Tc  Tc415  1  0.30865043  0.50928461  0.31012181  1.0
  Tc  Tc416  1  0.30865043  0.84261794  0.31012181  1.0
  Tc  Tc417  1  0.64198376  0.17595128  0.31012181  1.0
  Tc  Tc418  1  0.64198376  0.50928461  0.31012181  1.0
  Tc  Tc419  1  0.64198376  0.84261794  0.31012181  1.0
  Tc  Tc420  1  0.97531709  0.17595128  0.31012181  1.0
  Tc  Tc421  1  0.97531709  0.50928461  0.31012181  1.0
  Tc  Tc422  1  0.97531709  0.84261794  0.31012181  1.0
  Tc  Tc423  1  0.04939117  0.06484017  0.25456625  1.0
  Tc  Tc424  1  0.04939117  0.39817350  0.25456625  1.0
  Tc  Tc425  1  0.04939117  0.73150683  0.25456625  1.0
  Tc  Tc426  1  0.38272450  0.06484017  0.25456625  1.0
  Tc  Tc427  1  0.38272450  0.39817350  0.25456625  1.0
  Tc  Tc428  1  0.38272450  0.73150683  0.25456625  1.0
  Tc  Tc429  1  0.71605783  0.06484017  0.25456625  1.0
  Tc  Tc430  1  0.71605783  0.39817350  0.25456625  1.0
  Tc  Tc431  1  0.71605783  0.73150683  0.25456625  1.0
  Tc  Tc432  1  0.08016241  0.15738206  0.27309744  1.0
  Tc  Tc433  1  0.08016241  0.49071539  0.27309744  1.0
  Tc  Tc434  1  0.08016241  0.82404872  0.27309744  1.0
  Tc  Tc435  1  0.41349574  0.15738206  0.27309744  1.0
  Tc  Tc436  1  0.41349574  0.49071539  0.27309744  1.0
  Tc  Tc437  1  0.41349574  0.82404872  0.27309744  1.0
  Tc  Tc438  1  0.74682907  0.15738206  0.27309744  1.0
  Tc  Tc439  1  0.74682907  0.49071539  0.27309744  1.0
  Tc  Tc440  1  0.74682907  0.82404872  0.27309744  1.0
  Tc  Tc441  1  0.00608833  0.26849317  0.32865300  1.0
  Tc  Tc442  1  0.00608833  0.60182650  0.32865300  1.0
  Tc  Tc443  1  0.00608833  0.93515983  0.32865300  1.0
  Tc  Tc444  1  0.33942167  0.26849317  0.32865300  1.0
  Tc  Tc445  1  0.33942167  0.60182650  0.32865300  1.0
  Tc  Tc446  1  0.33942167  0.93515983  0.32865300  1.0
  Tc  Tc447  1  0.67275500  0.26849317  0.32865300  1.0
  Tc  Tc448  1  0.67275500  0.60182650  0.32865300  1.0
  Tc  Tc449  1  0.67275500  0.93515983  0.32865300  1.0
  Tc  Tc450  1  0.20996950  0.21301367  0.30091325  1.0
  Tc  Tc451  1  0.20996950  0.54634700  0.30091325  1.0
  Tc  Tc452  1  0.20996950  0.87968033  0.30091325  1.0
  Tc  Tc453  1  0.54330283  0.21301367  0.30091325  1.0
  Tc  Tc454  1  0.54330283  0.54634700  0.30091325  1.0
  Tc  Tc455  1  0.54330283  0.87968033  0.30091325  1.0
  Tc  Tc456  1  0.87663617  0.21301367  0.30091325  1.0
  Tc  Tc457  1  0.87663617  0.54634700  0.30091325  1.0
  Tc  Tc458  1  0.87663617  0.87968033  0.30091325  1.0
  Tc  Tc459  1  0.28404357  0.10190256  0.24535769  1.0
  Tc  Tc460  1  0.28404357  0.43523589  0.24535769  1.0
  Tc  Tc461  1  0.28404357  0.76856922  0.24535769  1.0
  Tc  Tc462  1  0.61737691  0.10190256  0.24535769  1.0
  Tc  Tc463  1  0.61737691  0.43523589  0.24535769  1.0
  Tc  Tc464  1  0.61737691  0.76856922  0.24535769  1.0
  Tc  Tc465  1  0.95071024  0.10190256  0.24535769  1.0
  Tc  Tc466  1  0.95071024  0.43523589  0.24535769  1.0
  Tc  Tc467  1  0.95071024  0.76856922  0.24535769  1.0
  Tc  Tc468  1  0.13579402  0.15738206  0.35654486  1.0
  Tc  Tc469  1  0.13579402  0.49071539  0.35654486  1.0
  Tc  Tc470  1  0.13579402  0.82404872  0.35654486  1.0
  Tc  Tc471  1  0.46912735  0.15738206  0.35654486  1.0
  Tc  Tc472  1  0.46912735  0.49071539  0.35654486  1.0
  Tc  Tc473  1  0.46912735  0.82404872  0.35654486  1.0
  Tc  Tc474  1  0.80246069  0.15738206  0.35654486  1.0
  Tc  Tc475  1  0.80246069  0.49071539  0.35654486  1.0
  Tc  Tc476  1  0.80246069  0.82404872  0.35654486  1.0
  Tc  Tc477  1  0.06171994  0.26849317  0.41210042  1.0
  Tc  Tc478  1  0.06171994  0.60182650  0.41210042  1.0
  Tc  Tc479  1  0.06171994  0.93515983  0.41210042  1.0
  Tc  Tc480  1  0.39505328  0.26849317  0.41210042  1.0
  Tc  Tc481  1  0.39505328  0.60182650  0.41210042  1.0
  Tc  Tc482  1  0.39505328  0.93515983  0.41210042  1.0
  Tc  Tc483  1  0.72838661  0.26849317  0.41210042  1.0
  Tc  Tc484  1  0.72838661  0.60182650  0.41210042  1.0
  Tc  Tc485  1  0.72838661  0.93515983  0.41210042  1.0
  Tc  Tc486  1  0.03094870  0.17595128  0.39356922  1.0
  Tc  Tc487  1  0.03094870  0.50928461  0.39356922  1.0
  Tc  Tc488  1  0.03094870  0.84261794  0.39356922  1.0
  Tc  Tc489  1  0.36428204  0.17595128  0.39356922  1.0
  Tc  Tc490  1  0.36428204  0.50928461  0.39356922  1.0
  Tc  Tc491  1  0.36428204  0.84261794  0.39356922  1.0
  Tc  Tc492  1  0.69761537  0.17595128  0.39356922  1.0
  Tc  Tc493  1  0.69761537  0.50928461  0.39356922  1.0
  Tc  Tc494  1  0.69761537  0.84261794  0.39356922  1.0
  Tc  Tc495  1  0.10502278  0.06484017  0.33801367  1.0
  Tc  Tc496  1  0.10502278  0.39817350  0.33801367  1.0
  Tc  Tc497  1  0.10502278  0.73150683  0.33801367  1.0
  Tc  Tc498  1  0.43835611  0.06484017  0.33801367  1.0
  Tc  Tc499  1  0.43835611  0.39817350  0.33801367  1.0
  Tc  Tc500  1  0.43835611  0.73150683  0.33801367  1.0
  Tc  Tc501  1  0.77168944  0.06484017  0.33801367  1.0
  Tc  Tc502  1  0.77168944  0.39817350  0.33801367  1.0
  Tc  Tc503  1  0.77168944  0.73150683  0.33801367  1.0
  Tc  Tc504  1  0.23447494  0.12031967  0.36575342  1.0
  Tc  Tc505  1  0.23447494  0.45365300  0.36575342  1.0
  Tc  Tc506  1  0.23447494  0.78698633  0.36575342  1.0
  Tc  Tc507  1  0.56780828  0.12031967  0.36575342  1.0
  Tc  Tc508  1  0.56780828  0.45365300  0.36575342  1.0
  Tc  Tc509  1  0.56780828  0.78698633  0.36575342  1.0
  Tc  Tc510  1  0.90114161  0.12031967  0.36575342  1.0
  Tc  Tc511  1  0.90114161  0.45365300  0.36575342  1.0
  Tc  Tc512  1  0.90114161  0.78698633  0.36575342  1.0
  Tc  Tc513  1  0.16040087  0.23143078  0.42130897  1.0
  Tc  Tc514  1  0.16040087  0.56476411  0.42130897  1.0
  Tc  Tc515  1  0.16040087  0.89809744  0.42130897  1.0
  Tc  Tc516  1  0.49373420  0.23143078  0.42130897  1.0
  Tc  Tc517  1  0.49373420  0.56476411  0.42130897  1.0
  Tc  Tc518  1  0.49373420  0.89809744  0.42130897  1.0
  Tc  Tc519  1  0.82706754  0.23143078  0.42130897  1.0
  Tc  Tc520  1  0.82706754  0.56476411  0.42130897  1.0
  Tc  Tc521  1  0.82706754  0.89809744  0.42130897  1.0
  Tc  Tc522  1  0.16050228  0.06484017  0.42123292  1.0
  Tc  Tc523  1  0.16050228  0.39817350  0.42123292  1.0
  Tc  Tc524  1  0.16050228  0.73150683  0.42123292  1.0
  Tc  Tc525  1  0.49383561  0.06484017  0.42123292  1.0
  Tc  Tc526  1  0.49383561  0.39817350  0.42123292  1.0
  Tc  Tc527  1  0.49383561  0.73150683  0.42123292  1.0
  Tc  Tc528  1  0.82716894  0.06484017  0.42123292  1.0
  Tc  Tc529  1  0.82716894  0.39817350  0.42123292  1.0
  Tc  Tc530  1  0.82716894  0.73150683  0.42123292  1.0
  Tc  Tc531  1  0.23457635  0.28706239  0.36567736  1.0
  Tc  Tc532  1  0.23457635  0.62039572  0.36567736  1.0
  Tc  Tc533  1  0.23457635  0.95372906  0.36567736  1.0
  Tc  Tc534  1  0.56790969  0.28706239  0.36567736  1.0
  Tc  Tc535  1  0.56790969  0.62039572  0.36567736  1.0
  Tc  Tc536  1  0.56790969  0.95372906  0.36567736  1.0
  Tc  Tc537  1  0.90124302  0.28706239  0.36567736  1.0
  Tc  Tc538  1  0.90124302  0.62039572  0.36567736  1.0
  Tc  Tc539  1  0.90124302  0.95372906  0.36567736  1.0
  Tc  Tc540  1  0.26534759  0.04627094  0.38420856  1.0
  Tc  Tc541  1  0.26534759  0.37960428  0.38420856  1.0
  Tc  Tc542  1  0.26534759  0.71293761  0.38420856  1.0
  Tc  Tc543  1  0.59868093  0.04627094  0.38420856  1.0
  Tc  Tc544  1  0.59868093  0.37960428  0.38420856  1.0
  Tc  Tc545  1  0.59868093  0.71293761  0.38420856  1.0
  Tc  Tc546  1  0.93201426  0.04627094  0.38420856  1.0
  Tc  Tc547  1  0.93201426  0.37960428  0.38420856  1.0
  Tc  Tc548  1  0.93201426  0.71293761  0.38420856  1.0
  Tc  Tc549  1  0.19127352  0.15738206  0.43976411  1.0
  Tc  Tc550  1  0.19127352  0.49071539  0.43976411  1.0
  Tc  Tc551  1  0.19127352  0.82404872  0.43976411  1.0
  Tc  Tc552  1  0.52460685  0.15738206  0.43976411  1.0
  Tc  Tc553  1  0.52460685  0.49071539  0.43976411  1.0
  Tc  Tc554  1  0.52460685  0.82404872  0.43976411  1.0
  Tc  Tc555  1  0.85794019  0.15738206  0.43976411  1.0
  Tc  Tc556  1  0.85794019  0.49071539  0.43976411  1.0
  Tc  Tc557  1  0.85794019  0.82404872  0.43976411  1.0
  Tc  Tc558  1  0.06182135  0.10190256  0.41202436  1.0
  Tc  Tc559  1  0.06182135  0.43523589  0.41202436  1.0
  Tc  Tc560  1  0.06182135  0.76856922  0.41202436  1.0
  Tc  Tc561  1  0.39515469  0.10190256  0.41202436  1.0
  Tc  Tc562  1  0.39515469  0.43523589  0.41202436  1.0
  Tc  Tc563  1  0.39515469  0.76856922  0.41202436  1.0
  Tc  Tc564  1  0.72848802  0.10190256  0.41202436  1.0
  Tc  Tc565  1  0.72848802  0.43523589  0.41202436  1.0
  Tc  Tc566  1  0.72848802  0.76856922  0.41202436  1.0
  Tc  Tc567  1  0.13589543  0.32412478  0.35646881  1.0
  Tc  Tc568  1  0.13589543  0.65745811  0.35646881  1.0
  Tc  Tc569  1  0.13589543  0.99079144  0.35646881  1.0
  Tc  Tc570  1  0.46922876  0.32412478  0.35646881  1.0
  Tc  Tc571  1  0.46922876  0.65745811  0.35646881  1.0
  Tc  Tc572  1  0.46922876  0.99079144  0.35646881  1.0
  Tc  Tc573  1  0.80256209  0.32412478  0.35646881  1.0
  Tc  Tc574  1  0.80256209  0.65745811  0.35646881  1.0
  Tc  Tc575  1  0.80256209  0.99079144  0.35646881  1.0
