# generated using pymatgen
data_Tc3Ni
_symmetry_space_group_name_H-M   'P 1'
_cell_length_a   16.15304511
_cell_length_b   16.15304511
_cell_length_c   30.34030300
_cell_angle_alpha   90.00000000
_cell_angle_beta   90.00000000
_cell_angle_gamma   120.00000000
_symmetry_Int_Tables_number   1
_chemical_formula_structural   Tc3Ni
_chemical_formula_sum   'Tc162 Ni54'
_cell_volume   6855.81921912
_cell_formula_units_Z   54
loop_
 _symmetry_equiv_pos_site_id
 _symmetry_equiv_pos_as_xyz
  1  'x, y, z'
loop_
 _atom_site_type_symbol
 _atom_site_label
 _atom_site_symmetry_multiplicity
 _atom_site_fract_x
 _atom_site_fract_y
 _atom_site_fract_z
 _atom_site_occupancy
  Tc  Tc0  1  0.22237433  0.27785383  0.03571429  1.0
  Tc  Tc1  1  0.22237433  0.61118717  0.03571429  1.0
  Tc  Tc2  1  0.22237433  0.94452050  0.03571429  1.0
  Tc  Tc3  1  0.55570767  0.27785383  0.03571429  1.0
  Tc  Tc4  1  0.55570767  0.61118717  0.03571429  1.0
  Tc  Tc5  1  0.55570767  0.94452050  0.03571429  1.0
  Tc  Tc6  1  0.88904100  0.27785383  0.03571429  1.0
  Tc  Tc7  1  0.88904100  0.61118717  0.03571429  1.0
  Tc  Tc8  1  0.88904100  0.94452050  0.03571429  1.0
  Tc  Tc9  1  0.27785383  0.22237433  0.10714286  1.0
  Tc  Tc10  1  0.27785383  0.55570767  0.10714286  1.0
  Tc  Tc11  1  0.27785383  0.88904100  0.10714286  1.0
  Tc  Tc12  1  0.61118717  0.22237433  0.10714286  1.0
  Tc  Tc13  1  0.61118717  0.55570767  0.10714286  1.0
  Tc  Tc14  1  0.61118717  0.88904100  0.10714286  1.0
  Tc  Tc15  1  0.94452050  0.22237433  0.10714286  1.0
  Tc  Tc16  1  0.94452050  0.55570767  0.10714286  1.0
  Tc  Tc17  1  0.94452050  0.88904100  0.10714286  1.0
  Tc  Tc18  1  0.27785383  0.05547950  0.10714286  1.0
  Tc  Tc19  1  0.27785383  0.38881283  0.10714286  1.0
  Tc  Tc20  1  0.27785383  0.72214617  0.10714286  1.0
  Tc  Tc21  1  0.61118717  0.05547950  0.10714286  1.0
  Tc  Tc22  1  0.61118717  0.38881283  0.10714286  1.0
  Tc  Tc23  1  0.61118717  0.72214617  0.10714286  1.0
  Tc  Tc24  1  0.94452050  0.05547950  0.10714286  1.0
  Tc  Tc25  1  0.94452050  0.38881283  0.10714286  1.0
  Tc  Tc26  1  0.94452050  0.72214617  0.10714286  1.0
  Tc  Tc27  1  0.11095900  0.05547950  0.10714286  1.0
  Tc  Tc28  1  0.11095900  0.38881283  0.10714286  1.0
  Tc  Tc29  1  0.11095900  0.72214617  0.10714286  1.0
  Tc  Tc30  1  0.44429233  0.05547950  0.10714286  1.0
  Tc  Tc31  1  0.44429233  0.38881283  0.10714286  1.0
  Tc  Tc32  1  0.44429233  0.72214617  0.10714286  1.0
  Tc  Tc33  1  0.77762567  0.05547950  0.10714286  1.0
  Tc  Tc34  1  0.77762567  0.38881283  0.10714286  1.0
  Tc  Tc35  1  0.77762567  0.72214617  0.10714286  1.0
  Tc  Tc36  1  0.05547950  0.11095900  0.03571429  1.0
  Tc  Tc37  1  0.05547950  0.44429233  0.03571429  1.0
  Tc  Tc38  1  0.05547950  0.77762567  0.03571429  1.0
  Tc  Tc39  1  0.38881283  0.11095900  0.03571429  1.0
  Tc  Tc40  1  0.38881283  0.44429233  0.03571429  1.0
  Tc  Tc41  1  0.38881283  0.77762567  0.03571429  1.0
  Tc  Tc42  1  0.72214617  0.11095900  0.03571429  1.0
  Tc  Tc43  1  0.72214617  0.44429233  0.03571429  1.0
  Tc  Tc44  1  0.72214617  0.77762567  0.03571429  1.0
  Tc  Tc45  1  0.05547950  0.27785383  0.03571429  1.0
  Tc  Tc46  1  0.05547950  0.61118717  0.03571429  1.0
  Tc  Tc47  1  0.05547950  0.94452050  0.03571429  1.0
  Tc  Tc48  1  0.38881283  0.27785383  0.03571429  1.0
  Tc  Tc49  1  0.38881283  0.61118717  0.03571429  1.0
  Tc  Tc50  1  0.38881283  0.94452050  0.03571429  1.0
  Tc  Tc51  1  0.72214617  0.27785383  0.03571429  1.0
  Tc  Tc52  1  0.72214617  0.61118717  0.03571429  1.0
  Tc  Tc53  1  0.72214617  0.94452050  0.03571429  1.0
  Ni  Ni54  1  0.11111111  0.22222222  0.10714286  1.0
  Ni  Ni55  1  0.11111111  0.55555556  0.10714286  1.0
  Ni  Ni56  1  0.11111111  0.88888889  0.10714286  1.0
  Ni  Ni57  1  0.44444444  0.22222222  0.10714286  1.0
  Ni  Ni58  1  0.44444444  0.55555556  0.10714286  1.0
  Ni  Ni59  1  0.44444444  0.88888889  0.10714286  1.0
  Ni  Ni60  1  0.77777778  0.22222222  0.10714286  1.0
  Ni  Ni61  1  0.77777778  0.55555556  0.10714286  1.0
  Ni  Ni62  1  0.77777778  0.88888889  0.10714286  1.0
  Ni  Ni63  1  0.22222222  0.11111111  0.03571429  1.0
  Ni  Ni64  1  0.22222222  0.44444444  0.03571429  1.0
  Ni  Ni65  1  0.22222222  0.77777778  0.03571429  1.0
  Ni  Ni66  1  0.55555556  0.11111111  0.03571429  1.0
  Ni  Ni67  1  0.55555556  0.44444444  0.03571429  1.0
  Ni  Ni68  1  0.55555556  0.77777778  0.03571429  1.0
  Ni  Ni69  1  0.88888889  0.11111111  0.03571429  1.0
  Ni  Ni70  1  0.88888889  0.44444444  0.03571429  1.0
  Ni  Ni71  1  0.88888889  0.77777778  0.03571429  1.0
  Tc  Tc72  1  0.22237433  0.27785383  0.17857143  1.0
  Tc  Tc73  1  0.22237433  0.61118717  0.17857143  1.0
  Tc  Tc74  1  0.22237433  0.94452050  0.17857143  1.0
  Tc  Tc75  1  0.55570767  0.27785383  0.17857143  1.0
  Tc  Tc76  1  0.55570767  0.61118717  0.17857143  1.0
  Tc  Tc77  1  0.55570767  0.94452050  0.17857143  1.0
  Tc  Tc78  1  0.88904100  0.27785383  0.17857143  1.0
  Tc  Tc79  1  0.88904100  0.61118717  0.17857143  1.0
  Tc  Tc80  1  0.88904100  0.94452050  0.17857143  1.0
  Tc  Tc81  1  0.27785383  0.22237433  0.25000000  1.0
  Tc  Tc82  1  0.27785383  0.55570767  0.25000000  1.0
  Tc  Tc83  1  0.27785383  0.88904100  0.25000000  1.0
  Tc  Tc84  1  0.61118717  0.22237433  0.25000000  1.0
  Tc  Tc85  1  0.61118717  0.55570767  0.25000000  1.0
  Tc  Tc86  1  0.61118717  0.88904100  0.25000000  1.0
  Tc  Tc87  1  0.94452050  0.22237433  0.25000000  1.0
  Tc  Tc88  1  0.94452050  0.55570767  0.25000000  1.0
  Tc  Tc89  1  0.94452050  0.88904100  0.25000000  1.0
  Tc  Tc90  1  0.27785383  0.05547950  0.25000000  1.0
  Tc  Tc91  1  0.27785383  0.38881283  0.25000000  1.0
  Tc  Tc92  1  0.27785383  0.72214617  0.25000000  1.0
  Tc  Tc93  1  0.61118717  0.05547950  0.25000000  1.0
  Tc  Tc94  1  0.61118717  0.38881283  0.25000000  1.0
  Tc  Tc95  1  0.61118717  0.72214617  0.25000000  1.0
  Tc  Tc96  1  0.94452050  0.05547950  0.25000000  1.0
  Tc  Tc97  1  0.94452050  0.38881283  0.25000000  1.0
  Tc  Tc98  1  0.94452050  0.72214617  0.25000000  1.0
  Tc  Tc99  1  0.11095900  0.05547950  0.25000000  1.0
  Tc  Tc100  1  0.11095900  0.38881283  0.25000000  1.0
  Tc  Tc101  1  0.11095900  0.72214617  0.25000000  1.0
  Tc  Tc102  1  0.44429233  0.05547950  0.25000000  1.0
  Tc  Tc103  1  0.44429233  0.38881283  0.25000000  1.0
  Tc  Tc104  1  0.44429233  0.72214617  0.25000000  1.0
  Tc  Tc105  1  0.77762567  0.05547950  0.25000000  1.0
  Tc  Tc106  1  0.77762567  0.38881283  0.25000000  1.0
  Tc  Tc107  1  0.77762567  0.72214617  0.25000000  1.0
  Tc  Tc108  1  0.05547950  0.11095900  0.17857143  1.0
  Tc  Tc109  1  0.05547950  0.44429233  0.17857143  1.0
  Tc  Tc110  1  0.05547950  0.77762567  0.17857143  1.0
  Tc  Tc111  1  0.38881283  0.11095900  0.17857143  1.0
  Tc  Tc112  1  0.38881283  0.44429233  0.17857143  1.0
  Tc  Tc113  1  0.38881283  0.77762567  0.17857143  1.0
  Tc  Tc114  1  0.72214617  0.11095900  0.17857143  1.0
  Tc  Tc115  1  0.72214617  0.44429233  0.17857143  1.0
  Tc  Tc116  1  0.72214617  0.77762567  0.17857143  1.0
  Tc  Tc117  1  0.05547950  0.27785383  0.17857143  1.0
  Tc  Tc118  1  0.05547950  0.61118717  0.17857143  1.0
  Tc  Tc119  1  0.05547950  0.94452050  0.17857143  1.0
  Tc  Tc120  1  0.38881283  0.27785383  0.17857143  1.0
  Tc  Tc121  1  0.38881283  0.61118717  0.17857143  1.0
  Tc  Tc122  1  0.38881283  0.94452050  0.17857143  1.0
  Tc  Tc123  1  0.72214617  0.27785383  0.17857143  1.0
  Tc  Tc124  1  0.72214617  0.61118717  0.17857143  1.0
  Tc  Tc125  1  0.72214617  0.94452050  0.17857143  1.0
  Ni  Ni126  1  0.11111111  0.22222222  0.25000000  1.0
  Ni  Ni127  1  0.11111111  0.55555556  0.25000000  1.0
  Ni  Ni128  1  0.11111111  0.88888889  0.25000000  1.0
  Ni  Ni129  1  0.44444444  0.22222222  0.25000000  1.0
  Ni  Ni130  1  0.44444444  0.55555556  0.25000000  1.0
  Ni  Ni131  1  0.44444444  0.88888889  0.25000000  1.0
  Ni  Ni132  1  0.77777778  0.22222222  0.25000000  1.0
  Ni  Ni133  1  0.77777778  0.55555556  0.25000000  1.0
  Ni  Ni134  1  0.77777778  0.88888889  0.25000000  1.0
  Ni  Ni135  1  0.22222222  0.11111111  0.17857143  1.0
  Ni  Ni136  1  0.22222222  0.44444444  0.17857143  1.0
  Ni  Ni137  1  0.22222222  0.77777778  0.17857143  1.0
  Ni  Ni138  1  0.55555556  0.11111111  0.17857143  1.0
  Ni  Ni139  1  0.55555556  0.44444444  0.17857143  1.0
  Ni  Ni140  1  0.55555556  0.77777778  0.17857143  1.0
  Ni  Ni141  1  0.88888889  0.11111111  0.17857143  1.0
  Ni  Ni142  1  0.88888889  0.44444444  0.17857143  1.0
  Ni  Ni143  1  0.88888889  0.77777778  0.17857143  1.0
  Tc  Tc144  1  0.22237433  0.27785383  0.32142857  1.0
  Tc  Tc145  1  0.22237433  0.61118717  0.32142857  1.0
  Tc  Tc146  1  0.22237433  0.94452050  0.32142857  1.0
  Tc  Tc147  1  0.55570767  0.27785383  0.32142857  1.0
  Tc  Tc148  1  0.55570767  0.61118717  0.32142857  1.0
  Tc  Tc149  1  0.55570767  0.94452050  0.32142857  1.0
  Tc  Tc150  1  0.88904100  0.27785383  0.32142857  1.0
  Tc  Tc151  1  0.88904100  0.61118717  0.32142857  1.0
  Tc  Tc152  1  0.88904100  0.94452050  0.32142857  1.0
  Tc  Tc153  1  0.27785383  0.22237433  0.39285714  1.0
  Tc  Tc154  1  0.27785383  0.55570767  0.39285714  1.0
  Tc  Tc155  1  0.27785383  0.88904100  0.39285714  1.0
  Tc  Tc156  1  0.61118717  0.22237433  0.39285714  1.0
  Tc  Tc157  1  0.61118717  0.55570767  0.39285714  1.0
  Tc  Tc158  1  0.61118717  0.88904100  0.39285714  1.0
  Tc  Tc159  1  0.94452050  0.22237433  0.39285714  1.0
  Tc  Tc160  1  0.94452050  0.55570767  0.39285714  1.0
  Tc  Tc161  1  0.94452050  0.88904100  0.39285714  1.0
  Tc  Tc162  1  0.27785383  0.05547950  0.39285714  1.0
  Tc  Tc163  1  0.27785383  0.38881283  0.39285714  1.0
  Tc  Tc164  1  0.27785383  0.72214617  0.39285714  1.0
  Tc  Tc165  1  0.61118717  0.05547950  0.39285714  1.0
  Tc  Tc166  1  0.61118717  0.38881283  0.39285714  1.0
  Tc  Tc167  1  0.61118717  0.72214617  0.39285714  1.0
  Tc  Tc168  1  0.94452050  0.05547950  0.39285714  1.0
  Tc  Tc169  1  0.94452050  0.38881283  0.39285714  1.0
  Tc  Tc170  1  0.94452050  0.72214617  0.39285714  1.0
  Tc  Tc171  1  0.11095900  0.05547950  0.39285714  1.0
  Tc  Tc172  1  0.11095900  0.38881283  0.39285714  1.0
  Tc  Tc173  1  0.11095900  0.72214617  0.39285714  1.0
  Tc  Tc174  1  0.44429233  0.05547950  0.39285714  1.0
  Tc  Tc175  1  0.44429233  0.38881283  0.39285714  1.0
  Tc  Tc176  1  0.44429233  0.72214617  0.39285714  1.0
  Tc  Tc177  1  0.77762567  0.05547950  0.39285714  1.0
  Tc  Tc178  1  0.77762567  0.38881283  0.39285714  1.0
  Tc  Tc179  1  0.77762567  0.72214617  0.39285714  1.0
  Tc  Tc180  1  0.05547950  0.11095900  0.32142857  1.0
  Tc  Tc181  1  0.05547950  0.44429233  0.32142857  1.0
  Tc  Tc182  1  0.05547950  0.77762567  0.32142857  1.0
  Tc  Tc183  1  0.38881283  0.11095900  0.32142857  1.0
  Tc  Tc184  1  0.38881283  0.44429233  0.32142857  1.0
  Tc  Tc185  1  0.38881283  0.77762567  0.32142857  1.0
  Tc  Tc186  1  0.72214617  0.11095900  0.32142857  1.0
  Tc  Tc187  1  0.72214617  0.44429233  0.32142857  1.0
  Tc  Tc188  1  0.72214617  0.77762567  0.32142857  1.0
  Tc  Tc189  1  0.05547950  0.27785383  0.32142857  1.0
  Tc  Tc190  1  0.05547950  0.61118717  0.32142857  1.0
  Tc  Tc191  1  0.05547950  0.94452050  0.32142857  1.0
  Tc  Tc192  1  0.38881283  0.27785383  0.32142857  1.0
  Tc  Tc193  1  0.38881283  0.61118717  0.32142857  1.0
  Tc  Tc194  1  0.38881283  0.94452050  0.32142857  1.0
  Tc  Tc195  1  0.72214617  0.27785383  0.32142857  1.0
  Tc  Tc196  1  0.72214617  0.61118717  0.32142857  1.0
  Tc  Tc197  1  0.72214617  0.94452050  0.32142857  1.0
  Ni  Ni198  1  0.11111111  0.22222222  0.39285714  1.0
  Ni  Ni199  1  0.11111111  0.55555556  0.39285714  1.0
  Ni  Ni200  1  0.11111111  0.88888889  0.39285714  1.0
  Ni  Ni201  1  0.44444444  0.22222222  0.39285714  1.0
  Ni  Ni202  1  0.44444444  0.55555556  0.39285714  1.0
  Ni  Ni203  1  0.44444444  0.88888889  0.39285714  1.0
  Ni  Ni204  1  0.77777778  0.22222222  0.39285714  1.0
  Ni  Ni205  1  0.77777778  0.55555556  0.39285714  1.0
  Ni  Ni206  1  0.77777778  0.88888889  0.39285714  1.0
  Ni  Ni207  1  0.22222222  0.11111111  0.32142857  1.0
  Ni  Ni208  1  0.22222222  0.44444444  0.32142857  1.0
  Ni  Ni209  1  0.22222222  0.77777778  0.32142857  1.0
  Ni  Ni210  1  0.55555556  0.11111111  0.32142857  1.0
  Ni  Ni211  1  0.55555556  0.44444444  0.32142857  1.0
  Ni  Ni212  1  0.55555556  0.77777778  0.32142857  1.0
  Ni  Ni213  1  0.88888889  0.11111111  0.32142857  1.0
  Ni  Ni214  1  0.88888889  0.44444444  0.32142857  1.0
  Ni  Ni215  1  0.88888889  0.77777778  0.32142857  1.0
