# generated using pymatgen
data_Tc3Ni
_symmetry_space_group_name_H-M   'P 1'
_cell_length_a   16.15304511
_cell_length_b   20.73640608
_cell_length_c   39.00896100
_cell_angle_alpha   51.16639632
_cell_angle_beta   90.00000000
_cell_angle_gamma   67.07753131
_symmetry_Int_Tables_number   1
_chemical_formula_structural   Tc3Ni
_chemical_formula_sum   'Tc216 Ni72'
_cell_volume   8814.62471029
_cell_formula_units_Z   72
loop_
 _symmetry_equiv_pos_site_id
 _symmetry_equiv_pos_as_xyz
  1  'x, y, z'
loop_
 _atom_site_type_symbol
 _atom_site_label
 _atom_site_symmetry_multiplicity
 _atom_site_fract_x
 _atom_site_fract_y
 _atom_site_fract_z
 _atom_site_occupancy
  Tc  Tc0  1  0.27785383  0.11095900  0.10190256  1.0
  Tc  Tc1  1  0.27785383  0.44429233  0.10190256  1.0
  Tc  Tc2  1  0.27785383  0.77762567  0.10190256  1.0
  Tc  Tc3  1  0.61118717  0.11095900  0.10190256  1.0
  Tc  Tc4  1  0.61118717  0.44429233  0.10190256  1.0
  Tc  Tc5  1  0.61118717  0.77762567  0.10190256  1.0
  Tc  Tc6  1  0.94452050  0.11095900  0.10190256  1.0
  Tc  Tc7  1  0.94452050  0.44429233  0.10190256  1.0
  Tc  Tc8  1  0.94452050  0.77762567  0.10190256  1.0
  Tc  Tc9  1  0.22237433  0.05547950  0.06484017  1.0
  Tc  Tc10  1  0.22237433  0.38881283  0.06484017  1.0
  Tc  Tc11  1  0.22237433  0.72214617  0.06484017  1.0
  Tc  Tc12  1  0.55570767  0.05547950  0.06484017  1.0
  Tc  Tc13  1  0.55570767  0.38881283  0.06484017  1.0
  Tc  Tc14  1  0.55570767  0.72214617  0.06484017  1.0
  Tc  Tc15  1  0.88904100  0.05547950  0.06484017  1.0
  Tc  Tc16  1  0.88904100  0.38881283  0.06484017  1.0
  Tc  Tc17  1  0.88904100  0.72214617  0.06484017  1.0
  Tc  Tc18  1  0.05547950  0.05547950  0.06484017  1.0
  Tc  Tc19  1  0.05547950  0.38881283  0.06484017  1.0
  Tc  Tc20  1  0.05547950  0.72214617  0.06484017  1.0
  Tc  Tc21  1  0.38881283  0.05547950  0.06484017  1.0
  Tc  Tc22  1  0.38881283  0.38881283  0.06484017  1.0
  Tc  Tc23  1  0.38881283  0.72214617  0.06484017  1.0
  Tc  Tc24  1  0.72214617  0.05547950  0.06484017  1.0
  Tc  Tc25  1  0.72214617  0.38881283  0.06484017  1.0
  Tc  Tc26  1  0.72214617  0.72214617  0.06484017  1.0
  Tc  Tc27  1  0.05547950  0.22237433  0.00920856  1.0
  Tc  Tc28  1  0.05547950  0.55570767  0.00920856  1.0
  Tc  Tc29  1  0.05547950  0.88904100  0.00920856  1.0
  Tc  Tc30  1  0.38881283  0.22237433  0.00920856  1.0
  Tc  Tc31  1  0.38881283  0.55570767  0.00920856  1.0
  Tc  Tc32  1  0.38881283  0.88904100  0.00920856  1.0
  Tc  Tc33  1  0.72214617  0.22237433  0.00920856  1.0
  Tc  Tc34  1  0.72214617  0.55570767  0.00920856  1.0
  Tc  Tc35  1  0.72214617  0.88904100  0.00920856  1.0
  Tc  Tc36  1  0.11095900  0.27785383  0.04627094  1.0
  Tc  Tc37  1  0.11095900  0.61118717  0.04627094  1.0
  Tc  Tc38  1  0.11095900  0.94452050  0.04627094  1.0
  Tc  Tc39  1  0.44429233  0.27785383  0.04627094  1.0
  Tc  Tc40  1  0.44429233  0.61118717  0.04627094  1.0
  Tc  Tc41  1  0.44429233  0.94452050  0.04627094  1.0
  Tc  Tc42  1  0.77762567  0.27785383  0.04627094  1.0
  Tc  Tc43  1  0.77762567  0.61118717  0.04627094  1.0
  Tc  Tc44  1  0.77762567  0.94452050  0.04627094  1.0
  Tc  Tc45  1  0.27785383  0.27785383  0.04627094  1.0
  Tc  Tc46  1  0.27785383  0.61118717  0.04627094  1.0
  Tc  Tc47  1  0.27785383  0.94452050  0.04627094  1.0
  Tc  Tc48  1  0.61118717  0.27785383  0.04627094  1.0
  Tc  Tc49  1  0.61118717  0.61118717  0.04627094  1.0
  Tc  Tc50  1  0.61118717  0.94452050  0.04627094  1.0
  Tc  Tc51  1  0.94452050  0.27785383  0.04627094  1.0
  Tc  Tc52  1  0.94452050  0.61118717  0.04627094  1.0
  Tc  Tc53  1  0.94452050  0.94452050  0.04627094  1.0
  Ni  Ni54  1  0.22222222  0.22222222  0.00925926  1.0
  Ni  Ni55  1  0.22222222  0.55555556  0.00925926  1.0
  Ni  Ni56  1  0.22222222  0.88888889  0.00925926  1.0
  Ni  Ni57  1  0.55555556  0.22222222  0.00925926  1.0
  Ni  Ni58  1  0.55555556  0.55555556  0.00925926  1.0
  Ni  Ni59  1  0.55555556  0.88888889  0.00925926  1.0
  Ni  Ni60  1  0.88888889  0.22222222  0.00925926  1.0
  Ni  Ni61  1  0.88888889  0.55555556  0.00925926  1.0
  Ni  Ni62  1  0.88888889  0.88888889  0.00925926  1.0
  Ni  Ni63  1  0.11111111  0.11111111  0.10185185  1.0
  Ni  Ni64  1  0.11111111  0.44444444  0.10185185  1.0
  Ni  Ni65  1  0.11111111  0.77777778  0.10185185  1.0
  Ni  Ni66  1  0.44444444  0.11111111  0.10185185  1.0
  Ni  Ni67  1  0.44444444  0.44444444  0.10185185  1.0
  Ni  Ni68  1  0.44444444  0.77777778  0.10185185  1.0
  Ni  Ni69  1  0.77777778  0.11111111  0.10185185  1.0
  Ni  Ni70  1  0.77777778  0.44444444  0.10185185  1.0
  Ni  Ni71  1  0.77777778  0.77777778  0.10185185  1.0
  Tc  Tc72  1  0.27785383  0.11095900  0.21301367  1.0
  Tc  Tc73  1  0.27785383  0.44429233  0.21301367  1.0
  Tc  Tc74  1  0.27785383  0.77762567  0.21301367  1.0
  Tc  Tc75  1  0.61118717  0.11095900  0.21301367  1.0
  Tc  Tc76  1  0.61118717  0.44429233  0.21301367  1.0
  Tc  Tc77  1  0.61118717  0.77762567  0.21301367  1.0
  Tc  Tc78  1  0.94452050  0.11095900  0.21301367  1.0
  Tc  Tc79  1  0.94452050  0.44429233  0.21301367  1.0
  Tc  Tc80  1  0.94452050  0.77762567  0.21301367  1.0
  Tc  Tc81  1  0.22237433  0.05547950  0.17595128  1.0
  Tc  Tc82  1  0.22237433  0.38881283  0.17595128  1.0
  Tc  Tc83  1  0.22237433  0.72214617  0.17595128  1.0
  Tc  Tc84  1  0.55570767  0.05547950  0.17595128  1.0
  Tc  Tc85  1  0.55570767  0.38881283  0.17595128  1.0
  Tc  Tc86  1  0.55570767  0.72214617  0.17595128  1.0
  Tc  Tc87  1  0.88904100  0.05547950  0.17595128  1.0
  Tc  Tc88  1  0.88904100  0.38881283  0.17595128  1.0
  Tc  Tc89  1  0.88904100  0.72214617  0.17595128  1.0
  Tc  Tc90  1  0.05547950  0.05547950  0.17595128  1.0
  Tc  Tc91  1  0.05547950  0.38881283  0.17595128  1.0
  Tc  Tc92  1  0.05547950  0.72214617  0.17595128  1.0
  Tc  Tc93  1  0.38881283  0.05547950  0.17595128  1.0
  Tc  Tc94  1  0.38881283  0.38881283  0.17595128  1.0
  Tc  Tc95  1  0.38881283  0.72214617  0.17595128  1.0
  Tc  Tc96  1  0.72214617  0.05547950  0.17595128  1.0
  Tc  Tc97  1  0.72214617  0.38881283  0.17595128  1.0
  Tc  Tc98  1  0.72214617  0.72214617  0.17595128  1.0
  Tc  Tc99  1  0.05547950  0.22237433  0.12031967  1.0
  Tc  Tc100  1  0.05547950  0.55570767  0.12031967  1.0
  Tc  Tc101  1  0.05547950  0.88904100  0.12031967  1.0
  Tc  Tc102  1  0.38881283  0.22237433  0.12031967  1.0
  Tc  Tc103  1  0.38881283  0.55570767  0.12031967  1.0
  Tc  Tc104  1  0.38881283  0.88904100  0.12031967  1.0
  Tc  Tc105  1  0.72214617  0.22237433  0.12031967  1.0
  Tc  Tc106  1  0.72214617  0.55570767  0.12031967  1.0
  Tc  Tc107  1  0.72214617  0.88904100  0.12031967  1.0
  Tc  Tc108  1  0.11095900  0.27785383  0.15738206  1.0
  Tc  Tc109  1  0.11095900  0.61118717  0.15738206  1.0
  Tc  Tc110  1  0.11095900  0.94452050  0.15738206  1.0
  Tc  Tc111  1  0.44429233  0.27785383  0.15738206  1.0
  Tc  Tc112  1  0.44429233  0.61118717  0.15738206  1.0
  Tc  Tc113  1  0.44429233  0.94452050  0.15738206  1.0
  Tc  Tc114  1  0.77762567  0.27785383  0.15738206  1.0
  Tc  Tc115  1  0.77762567  0.61118717  0.15738206  1.0
  Tc  Tc116  1  0.77762567  0.94452050  0.15738206  1.0
  Tc  Tc117  1  0.27785383  0.27785383  0.15738206  1.0
  Tc  Tc118  1  0.27785383  0.61118717  0.15738206  1.0
  Tc  Tc119  1  0.27785383  0.94452050  0.15738206  1.0
  Tc  Tc120  1  0.61118717  0.27785383  0.15738206  1.0
  Tc  Tc121  1  0.61118717  0.61118717  0.15738206  1.0
  Tc  Tc122  1  0.61118717  0.94452050  0.15738206  1.0
  Tc  Tc123  1  0.94452050  0.27785383  0.15738206  1.0
  Tc  Tc124  1  0.94452050  0.61118717  0.15738206  1.0
  Tc  Tc125  1  0.94452050  0.94452050  0.15738206  1.0
  Ni  Ni126  1  0.22222222  0.22222222  0.12037037  1.0
  Ni  Ni127  1  0.22222222  0.55555556  0.12037037  1.0
  Ni  Ni128  1  0.22222222  0.88888889  0.12037037  1.0
  Ni  Ni129  1  0.55555556  0.22222222  0.12037037  1.0
  Ni  Ni130  1  0.55555556  0.55555556  0.12037037  1.0
  Ni  Ni131  1  0.55555556  0.88888889  0.12037037  1.0
  Ni  Ni132  1  0.88888889  0.22222222  0.12037037  1.0
  Ni  Ni133  1  0.88888889  0.55555556  0.12037037  1.0
  Ni  Ni134  1  0.88888889  0.88888889  0.12037037  1.0
  Ni  Ni135  1  0.11111111  0.11111111  0.21296296  1.0
  Ni  Ni136  1  0.11111111  0.44444444  0.21296296  1.0
  Ni  Ni137  1  0.11111111  0.77777778  0.21296296  1.0
  Ni  Ni138  1  0.44444444  0.11111111  0.21296296  1.0
  Ni  Ni139  1  0.44444444  0.44444444  0.21296296  1.0
  Ni  Ni140  1  0.44444444  0.77777778  0.21296296  1.0
  Ni  Ni141  1  0.77777778  0.11111111  0.21296296  1.0
  Ni  Ni142  1  0.77777778  0.44444444  0.21296296  1.0
  Ni  Ni143  1  0.77777778  0.77777778  0.21296296  1.0
  Tc  Tc144  1  0.27785383  0.11095900  0.32412478  1.0
  Tc  Tc145  1  0.27785383  0.44429233  0.32412478  1.0
  Tc  Tc146  1  0.27785383  0.77762567  0.32412478  1.0
  Tc  Tc147  1  0.61118717  0.11095900  0.32412478  1.0
  Tc  Tc148  1  0.61118717  0.44429233  0.32412478  1.0
  Tc  Tc149  1  0.61118717  0.77762567  0.32412478  1.0
  Tc  Tc150  1  0.94452050  0.11095900  0.32412478  1.0
  Tc  Tc151  1  0.94452050  0.44429233  0.32412478  1.0
  Tc  Tc152  1  0.94452050  0.77762567  0.32412478  1.0
  Tc  Tc153  1  0.22237433  0.05547950  0.28706239  1.0
  Tc  Tc154  1  0.22237433  0.38881283  0.28706239  1.0
  Tc  Tc155  1  0.22237433  0.72214617  0.28706239  1.0
  Tc  Tc156  1  0.55570767  0.05547950  0.28706239  1.0
  Tc  Tc157  1  0.55570767  0.38881283  0.28706239  1.0
  Tc  Tc158  1  0.55570767  0.72214617  0.28706239  1.0
  Tc  Tc159  1  0.88904100  0.05547950  0.28706239  1.0
  Tc  Tc160  1  0.88904100  0.38881283  0.28706239  1.0
  Tc  Tc161  1  0.88904100  0.72214617  0.28706239  1.0
  Tc  Tc162  1  0.05547950  0.05547950  0.28706239  1.0
  Tc  Tc163  1  0.05547950  0.38881283  0.28706239  1.0
  Tc  Tc164  1  0.05547950  0.72214617  0.28706239  1.0
  Tc  Tc165  1  0.38881283  0.05547950  0.28706239  1.0
  Tc  Tc166  1  0.38881283  0.38881283  0.28706239  1.0
  Tc  Tc167  1  0.38881283  0.72214617  0.28706239  1.0
  Tc  Tc168  1  0.72214617  0.05547950  0.28706239  1.0
  Tc  Tc169  1  0.72214617  0.38881283  0.28706239  1.0
  Tc  Tc170  1  0.72214617  0.72214617  0.28706239  1.0
  Tc  Tc171  1  0.05547950  0.22237433  0.23143078  1.0
  Tc  Tc172  1  0.05547950  0.55570767  0.23143078  1.0
  Tc  Tc173  1  0.05547950  0.88904100  0.23143078  1.0
  Tc  Tc174  1  0.38881283  0.22237433  0.23143078  1.0
  Tc  Tc175  1  0.38881283  0.55570767  0.23143078  1.0
  Tc  Tc176  1  0.38881283  0.88904100  0.23143078  1.0
  Tc  Tc177  1  0.72214617  0.22237433  0.23143078  1.0
  Tc  Tc178  1  0.72214617  0.55570767  0.23143078  1.0
  Tc  Tc179  1  0.72214617  0.88904100  0.23143078  1.0
  Tc  Tc180  1  0.11095900  0.27785383  0.26849317  1.0
  Tc  Tc181  1  0.11095900  0.61118717  0.26849317  1.0
  Tc  Tc182  1  0.11095900  0.94452050  0.26849317  1.0
  Tc  Tc183  1  0.44429233  0.27785383  0.26849317  1.0
  Tc  Tc184  1  0.44429233  0.61118717  0.26849317  1.0
  Tc  Tc185  1  0.44429233  0.94452050  0.26849317  1.0
  Tc  Tc186  1  0.77762567  0.27785383  0.26849317  1.0
  Tc  Tc187  1  0.77762567  0.61118717  0.26849317  1.0
  Tc  Tc188  1  0.77762567  0.94452050  0.26849317  1.0
  Tc  Tc189  1  0.27785383  0.27785383  0.26849317  1.0
  Tc  Tc190  1  0.27785383  0.61118717  0.26849317  1.0
  Tc  Tc191  1  0.27785383  0.94452050  0.26849317  1.0
  Tc  Tc192  1  0.61118717  0.27785383  0.26849317  1.0
  Tc  Tc193  1  0.61118717  0.61118717  0.26849317  1.0
  Tc  Tc194  1  0.61118717  0.94452050  0.26849317  1.0
  Tc  Tc195  1  0.94452050  0.27785383  0.26849317  1.0
  Tc  Tc196  1  0.94452050  0.61118717  0.26849317  1.0
  Tc  Tc197  1  0.94452050  0.94452050  0.26849317  1.0
  Ni  Ni198  1  0.22222222  0.22222222  0.23148148  1.0
  Ni  Ni199  1  0.22222222  0.55555556  0.23148148  1.0
  Ni  Ni200  1  0.22222222  0.88888889  0.23148148  1.0
  Ni  Ni201  1  0.55555556  0.22222222  0.23148148  1.0
  Ni  Ni202  1  0.55555556  0.55555556  0.23148148  1.0
  Ni  Ni203  1  0.55555556  0.88888889  0.23148148  1.0
  Ni  Ni204  1  0.88888889  0.22222222  0.23148148  1.0
  Ni  Ni205  1  0.88888889  0.55555556  0.23148148  1.0
  Ni  Ni206  1  0.88888889  0.88888889  0.23148148  1.0
  Ni  Ni207  1  0.11111111  0.11111111  0.32407407  1.0
  Ni  Ni208  1  0.11111111  0.44444444  0.32407407  1.0
  Ni  Ni209  1  0.11111111  0.77777778  0.32407407  1.0
  Ni  Ni210  1  0.44444444  0.11111111  0.32407407  1.0
  Ni  Ni211  1  0.44444444  0.44444444  0.32407407  1.0
  Ni  Ni212  1  0.44444444  0.77777778  0.32407407  1.0
  Ni  Ni213  1  0.77777778  0.11111111  0.32407407  1.0
  Ni  Ni214  1  0.77777778  0.44444444  0.32407407  1.0
  Ni  Ni215  1  0.77777778  0.77777778  0.32407407  1.0
  Tc  Tc216  1  0.27785383  0.11095900  0.43523589  1.0
  Tc  Tc217  1  0.27785383  0.44429233  0.43523589  1.0
  Tc  Tc218  1  0.27785383  0.77762567  0.43523589  1.0
  Tc  Tc219  1  0.61118717  0.11095900  0.43523589  1.0
  Tc  Tc220  1  0.61118717  0.44429233  0.43523589  1.0
  Tc  Tc221  1  0.61118717  0.77762567  0.43523589  1.0
  Tc  Tc222  1  0.94452050  0.11095900  0.43523589  1.0
  Tc  Tc223  1  0.94452050  0.44429233  0.43523589  1.0
  Tc  Tc224  1  0.94452050  0.77762567  0.43523589  1.0
  Tc  Tc225  1  0.22237433  0.05547950  0.39817350  1.0
  Tc  Tc226  1  0.22237433  0.38881283  0.39817350  1.0
  Tc  Tc227  1  0.22237433  0.72214617  0.39817350  1.0
  Tc  Tc228  1  0.55570767  0.05547950  0.39817350  1.0
  Tc  Tc229  1  0.55570767  0.38881283  0.39817350  1.0
  Tc  Tc230  1  0.55570767  0.72214617  0.39817350  1.0
  Tc  Tc231  1  0.88904100  0.05547950  0.39817350  1.0
  Tc  Tc232  1  0.88904100  0.38881283  0.39817350  1.0
  Tc  Tc233  1  0.88904100  0.72214617  0.39817350  1.0
  Tc  Tc234  1  0.05547950  0.05547950  0.39817350  1.0
  Tc  Tc235  1  0.05547950  0.38881283  0.39817350  1.0
  Tc  Tc236  1  0.05547950  0.72214617  0.39817350  1.0
  Tc  Tc237  1  0.38881283  0.05547950  0.39817350  1.0
  Tc  Tc238  1  0.38881283  0.38881283  0.39817350  1.0
  Tc  Tc239  1  0.38881283  0.72214617  0.39817350  1.0
  Tc  Tc240  1  0.72214617  0.05547950  0.39817350  1.0
  Tc  Tc241  1  0.72214617  0.38881283  0.39817350  1.0
  Tc  Tc242  1  0.72214617  0.72214617  0.39817350  1.0
  Tc  Tc243  1  0.05547950  0.22237433  0.34254189  1.0
  Tc  Tc244  1  0.05547950  0.55570767  0.34254189  1.0
  Tc  Tc245  1  0.05547950  0.88904100  0.34254189  1.0
  Tc  Tc246  1  0.38881283  0.22237433  0.34254189  1.0
  Tc  Tc247  1  0.38881283  0.55570767  0.34254189  1.0
  Tc  Tc248  1  0.38881283  0.88904100  0.34254189  1.0
  Tc  Tc249  1  0.72214617  0.22237433  0.34254189  1.0
  Tc  Tc250  1  0.72214617  0.55570767  0.34254189  1.0
  Tc  Tc251  1  0.72214617  0.88904100  0.34254189  1.0
  Tc  Tc252  1  0.11095900  0.27785383  0.37960428  1.0
  Tc  Tc253  1  0.11095900  0.61118717  0.37960428  1.0
  Tc  Tc254  1  0.11095900  0.94452050  0.37960428  1.0
  Tc  Tc255  1  0.44429233  0.27785383  0.37960428  1.0
  Tc  Tc256  1  0.44429233  0.61118717  0.37960428  1.0
  Tc  Tc257  1  0.44429233  0.94452050  0.37960428  1.0
  Tc  Tc258  1  0.77762567  0.27785383  0.37960428  1.0
  Tc  Tc259  1  0.77762567  0.61118717  0.37960428  1.0
  Tc  Tc260  1  0.77762567  0.94452050  0.37960428  1.0
  Tc  Tc261  1  0.27785383  0.27785383  0.37960428  1.0
  Tc  Tc262  1  0.27785383  0.61118717  0.37960428  1.0
  Tc  Tc263  1  0.27785383  0.94452050  0.37960428  1.0
  Tc  Tc264  1  0.61118717  0.27785383  0.37960428  1.0
  Tc  Tc265  1  0.61118717  0.61118717  0.37960428  1.0
  Tc  Tc266  1  0.61118717  0.94452050  0.37960428  1.0
  Tc  Tc267  1  0.94452050  0.27785383  0.37960428  1.0
  Tc  Tc268  1  0.94452050  0.61118717  0.37960428  1.0
  Tc  Tc269  1  0.94452050  0.94452050  0.37960428  1.0
  Ni  Ni270  1  0.22222222  0.22222222  0.34259259  1.0
  Ni  Ni271  1  0.22222222  0.55555556  0.34259259  1.0
  Ni  Ni272  1  0.22222222  0.88888889  0.34259259  1.0
  Ni  Ni273  1  0.55555556  0.22222222  0.34259259  1.0
  Ni  Ni274  1  0.55555556  0.55555556  0.34259259  1.0
  Ni  Ni275  1  0.55555556  0.88888889  0.34259259  1.0
  Ni  Ni276  1  0.88888889  0.22222222  0.34259259  1.0
  Ni  Ni277  1  0.88888889  0.55555556  0.34259259  1.0
  Ni  Ni278  1  0.88888889  0.88888889  0.34259259  1.0
  Ni  Ni279  1  0.11111111  0.11111111  0.43518519  1.0
  Ni  Ni280  1  0.11111111  0.44444444  0.43518519  1.0
  Ni  Ni281  1  0.11111111  0.77777778  0.43518519  1.0
  Ni  Ni282  1  0.44444444  0.11111111  0.43518519  1.0
  Ni  Ni283  1  0.44444444  0.44444444  0.43518519  1.0
  Ni  Ni284  1  0.44444444  0.77777778  0.43518519  1.0
  Ni  Ni285  1  0.77777778  0.11111111  0.43518519  1.0
  Ni  Ni286  1  0.77777778  0.44444444  0.43518519  1.0
  Ni  Ni287  1  0.77777778  0.77777778  0.43518519  1.0
