# generated using pymatgen
data_Tc3Ni
_symmetry_space_group_name_H-M   'P 1'
_cell_length_a   42.73694028
_cell_length_b   20.73640608
_cell_length_c   43.34329000
_cell_angle_alpha   51.16639632
_cell_angle_beta   90.00000000
_cell_angle_gamma   53.92482476
_symmetry_Int_Tables_number   1
_chemical_formula_structural   Tc3Ni
_chemical_formula_sum   'Tc432 Ni144'
_cell_volume   19588.05491176
_cell_formula_units_Z   144
loop_
 _symmetry_equiv_pos_site_id
 _symmetry_equiv_pos_as_xyz
  1  'x, y, z'
loop_
 _atom_site_type_symbol
 _atom_site_label
 _atom_site_symmetry_multiplicity
 _atom_site_fract_x
 _atom_site_fract_y
 _atom_site_fract_z
 _atom_site_occupancy
  Tc  Tc0  1  0.30559358  0.13869875  0.08339038  1.0
  Tc  Tc1  1  0.30559358  0.47203208  0.08339038  1.0
  Tc  Tc2  1  0.30559358  0.80536542  0.08339038  1.0
  Tc  Tc3  1  0.63892692  0.13869875  0.08339038  1.0
  Tc  Tc4  1  0.63892692  0.47203208  0.08339037  1.0
  Tc  Tc5  1  0.63892692  0.80536542  0.08339038  1.0
  Tc  Tc6  1  0.97226025  0.13869875  0.08339038  1.0
  Tc  Tc7  1  0.97226025  0.47203208  0.08339037  1.0
  Tc  Tc8  1  0.97226025  0.80536542  0.08339038  1.0
  Tc  Tc9  1  0.13892692  0.30536542  0.03339038  1.0
  Tc  Tc10  1  0.13892692  0.63869875  0.03339038  1.0
  Tc  Tc11  1  0.13892692  0.97203208  0.03339038  1.0
  Tc  Tc12  1  0.47226025  0.30536542  0.03339038  1.0
  Tc  Tc13  1  0.47226025  0.63869875  0.03339038  1.0
  Tc  Tc14  1  0.47226025  0.97203208  0.03339038  1.0
  Tc  Tc15  1  0.80559358  0.30536542  0.03339038  1.0
  Tc  Tc16  1  0.80559358  0.63869875  0.03339038  1.0
  Tc  Tc17  1  0.80559358  0.97203208  0.03339038  1.0
  Tc  Tc18  1  0.27785383  0.11095900  0.04171230  1.0
  Tc  Tc19  1  0.27785383  0.44429233  0.04171230  1.0
  Tc  Tc20  1  0.27785383  0.77762567  0.04171230  1.0
  Tc  Tc21  1  0.61118717  0.11095900  0.04171230  1.0
  Tc  Tc22  1  0.61118717  0.44429233  0.04171230  1.0
  Tc  Tc23  1  0.61118717  0.77762567  0.04171230  1.0
  Tc  Tc24  1  0.94452050  0.11095900  0.04171230  1.0
  Tc  Tc25  1  0.94452050  0.44429233  0.04171230  1.0
  Tc  Tc26  1  0.94452050  0.77762567  0.04171230  1.0
  Tc  Tc27  1  0.11118717  0.27762567  0.09171230  1.0
  Tc  Tc28  1  0.11118717  0.61095900  0.09171230  1.0
  Tc  Tc29  1  0.11118717  0.94429233  0.09171230  1.0
  Tc  Tc30  1  0.44452050  0.27762567  0.09171230  1.0
  Tc  Tc31  1  0.44452050  0.61095900  0.09171230  1.0
  Tc  Tc32  1  0.44452050  0.94429233  0.09171230  1.0
  Tc  Tc33  1  0.77785383  0.27762567  0.09171230  1.0
  Tc  Tc34  1  0.77785383  0.61095900  0.09171230  1.0
  Tc  Tc35  1  0.77785383  0.94429233  0.09171230  1.0
  Tc  Tc36  1  0.19440642  0.19440642  0.01667807  1.0
  Tc  Tc37  1  0.19440642  0.52773975  0.01667808  1.0
  Tc  Tc38  1  0.19440642  0.86107308  0.01667808  1.0
  Tc  Tc39  1  0.52773975  0.19440642  0.01667808  1.0
  Tc  Tc40  1  0.52773975  0.52773975  0.01667808  1.0
  Tc  Tc41  1  0.52773975  0.86107308  0.01667807  1.0
  Tc  Tc42  1  0.86107308  0.19440642  0.01667807  1.0
  Tc  Tc43  1  0.86107308  0.52773975  0.01667808  1.0
  Tc  Tc44  1  0.86107308  0.86107308  0.01667807  1.0
  Tc  Tc45  1  0.02773975  0.02773975  0.06667808  1.0
  Tc  Tc46  1  0.02773975  0.36107308  0.06667808  1.0
  Tc  Tc47  1  0.02773975  0.69440642  0.06667808  1.0
  Tc  Tc48  1  0.36107308  0.02773975  0.06667808  1.0
  Tc  Tc49  1  0.36107308  0.36107308  0.06667808  1.0
  Tc  Tc50  1  0.36107308  0.69440642  0.06667808  1.0
  Tc  Tc51  1  0.69440642  0.02773975  0.06667808  1.0
  Tc  Tc52  1  0.69440642  0.36107308  0.06667808  1.0
  Tc  Tc53  1  0.69440642  0.69440642  0.06667808  1.0
  Tc  Tc54  1  0.19440642  0.02796792  0.06660962  1.0
  Tc  Tc55  1  0.19440642  0.36130125  0.06660962  1.0
  Tc  Tc56  1  0.19440642  0.69463458  0.06660962  1.0
  Tc  Tc57  1  0.52773975  0.02796792  0.06660962  1.0
  Tc  Tc58  1  0.52773975  0.36130125  0.06660962  1.0
  Tc  Tc59  1  0.52773975  0.69463458  0.06660962  1.0
  Tc  Tc60  1  0.86107308  0.02796792  0.06660962  1.0
  Tc  Tc61  1  0.86107308  0.36130125  0.06660962  1.0
  Tc  Tc62  1  0.86107308  0.69463458  0.06660962  1.0
  Tc  Tc63  1  0.02773975  0.19463458  0.01660962  1.0
  Tc  Tc64  1  0.02773975  0.52796792  0.01660963  1.0
  Tc  Tc65  1  0.02773975  0.86130125  0.01660963  1.0
  Tc  Tc66  1  0.36107308  0.19463458  0.01660962  1.0
  Tc  Tc67  1  0.36107308  0.52796792  0.01660963  1.0
  Tc  Tc68  1  0.36107308  0.86130125  0.01660962  1.0
  Tc  Tc69  1  0.69440642  0.19463458  0.01660962  1.0
  Tc  Tc70  1  0.69440642  0.52796792  0.01660962  1.0
  Tc  Tc71  1  0.69440642  0.86130125  0.01660962  1.0
  Tc  Tc72  1  0.22214617  0.05570767  0.00828770  1.0
  Tc  Tc73  1  0.22214617  0.38904100  0.00828770  1.0
  Tc  Tc74  1  0.22214617  0.72237433  0.00828770  1.0
  Tc  Tc75  1  0.55547950  0.05570767  0.00828770  1.0
  Tc  Tc76  1  0.55547950  0.38904100  0.00828770  1.0
  Tc  Tc77  1  0.55547950  0.72237433  0.00828770  1.0
  Tc  Tc78  1  0.88881283  0.05570767  0.00828770  1.0
  Tc  Tc79  1  0.88881283  0.38904100  0.00828770  1.0
  Tc  Tc80  1  0.88881283  0.72237433  0.00828770  1.0
  Tc  Tc81  1  0.05547950  0.22237433  0.05828770  1.0
  Tc  Tc82  1  0.05547950  0.55570767  0.05828770  1.0
  Tc  Tc83  1  0.05547950  0.88904100  0.05828770  1.0
  Tc  Tc84  1  0.38881283  0.22237433  0.05828770  1.0
  Tc  Tc85  1  0.38881283  0.55570767  0.05828770  1.0
  Tc  Tc86  1  0.38881283  0.88904100  0.05828770  1.0
  Tc  Tc87  1  0.72214617  0.22237433  0.05828770  1.0
  Tc  Tc88  1  0.72214617  0.55570767  0.05828770  1.0
  Tc  Tc89  1  0.72214617  0.88904100  0.05828770  1.0
  Tc  Tc90  1  0.30559358  0.30559358  0.03332192  1.0
  Tc  Tc91  1  0.30559358  0.63892692  0.03332192  1.0
  Tc  Tc92  1  0.30559358  0.97226025  0.03332192  1.0
  Tc  Tc93  1  0.63892692  0.30559358  0.03332192  1.0
  Tc  Tc94  1  0.63892692  0.63892692  0.03332192  1.0
  Tc  Tc95  1  0.63892692  0.97226025  0.03332192  1.0
  Tc  Tc96  1  0.97226025  0.30559358  0.03332192  1.0
  Tc  Tc97  1  0.97226025  0.63892692  0.03332192  1.0
  Tc  Tc98  1  0.97226025  0.97226025  0.03332193  1.0
  Tc  Tc99  1  0.13892692  0.13892692  0.08332193  1.0
  Tc  Tc100  1  0.13892692  0.47226025  0.08332193  1.0
  Tc  Tc101  1  0.13892692  0.80559358  0.08332193  1.0
  Tc  Tc102  1  0.47226025  0.13892692  0.08332193  1.0
  Tc  Tc103  1  0.47226025  0.47226025  0.08332193  1.0
  Tc  Tc104  1  0.47226025  0.80559358  0.08332193  1.0
  Tc  Tc105  1  0.80559358  0.13892692  0.08332193  1.0
  Tc  Tc106  1  0.80559358  0.47226025  0.08332193  1.0
  Tc  Tc107  1  0.80559358  0.80559358  0.08332193  1.0
  Ni  Ni108  1  0.27777778  0.27777778  0.09166667  1.0
  Ni  Ni109  1  0.27777778  0.61111111  0.09166667  1.0
  Ni  Ni110  1  0.27777778  0.94444444  0.09166667  1.0
  Ni  Ni111  1  0.61111111  0.27777778  0.09166667  1.0
  Ni  Ni112  1  0.61111111  0.61111111  0.09166667  1.0
  Ni  Ni113  1  0.61111111  0.94444444  0.09166667  1.0
  Ni  Ni114  1  0.94444444  0.27777778  0.09166667  1.0
  Ni  Ni115  1  0.94444444  0.61111111  0.09166667  1.0
  Ni  Ni116  1  0.94444444  0.94444444  0.09166667  1.0
  Ni  Ni117  1  0.11111111  0.11111111  0.04166667  1.0
  Ni  Ni118  1  0.11111111  0.44444444  0.04166667  1.0
  Ni  Ni119  1  0.11111111  0.77777778  0.04166667  1.0
  Ni  Ni120  1  0.44444444  0.11111111  0.04166667  1.0
  Ni  Ni121  1  0.44444444  0.44444444  0.04166667  1.0
  Ni  Ni122  1  0.44444444  0.77777778  0.04166667  1.0
  Ni  Ni123  1  0.77777778  0.11111111  0.04166667  1.0
  Ni  Ni124  1  0.77777778  0.44444444  0.04166667  1.0
  Ni  Ni125  1  0.77777778  0.77777778  0.04166667  1.0
  Ni  Ni126  1  0.22222222  0.22222222  0.05833333  1.0
  Ni  Ni127  1  0.22222222  0.55555556  0.05833333  1.0
  Ni  Ni128  1  0.22222222  0.88888889  0.05833333  1.0
  Ni  Ni129  1  0.55555556  0.22222222  0.05833333  1.0
  Ni  Ni130  1  0.55555556  0.55555556  0.05833333  1.0
  Ni  Ni131  1  0.55555556  0.88888889  0.05833333  1.0
  Ni  Ni132  1  0.88888889  0.22222222  0.05833333  1.0
  Ni  Ni133  1  0.88888889  0.55555556  0.05833333  1.0
  Ni  Ni134  1  0.88888889  0.88888889  0.05833333  1.0
  Ni  Ni135  1  0.05555556  0.05555556  0.00833333  1.0
  Ni  Ni136  1  0.05555556  0.38888889  0.00833333  1.0
  Ni  Ni137  1  0.05555556  0.72222222  0.00833333  1.0
  Ni  Ni138  1  0.38888889  0.05555556  0.00833333  1.0
  Ni  Ni139  1  0.38888889  0.38888889  0.00833333  1.0
  Ni  Ni140  1  0.38888889  0.72222222  0.00833333  1.0
  Ni  Ni141  1  0.72222222  0.05555556  0.00833333  1.0
  Ni  Ni142  1  0.72222222  0.38888889  0.00833333  1.0
  Ni  Ni143  1  0.72222222  0.72222222  0.00833333  1.0
  Tc  Tc144  1  0.30559358  0.13869875  0.18339037  1.0
  Tc  Tc145  1  0.30559358  0.47203208  0.18339038  1.0
  Tc  Tc146  1  0.30559358  0.80536542  0.18339038  1.0
  Tc  Tc147  1  0.63892692  0.13869875  0.18339037  1.0
  Tc  Tc148  1  0.63892692  0.47203208  0.18339038  1.0
  Tc  Tc149  1  0.63892692  0.80536542  0.18339038  1.0
  Tc  Tc150  1  0.97226025  0.13869875  0.18339038  1.0
  Tc  Tc151  1  0.97226025  0.47203208  0.18339038  1.0
  Tc  Tc152  1  0.97226025  0.80536542  0.18339038  1.0
  Tc  Tc153  1  0.13892692  0.30536542  0.13339038  1.0
  Tc  Tc154  1  0.13892692  0.63869875  0.13339038  1.0
  Tc  Tc155  1  0.13892692  0.97203208  0.13339038  1.0
  Tc  Tc156  1  0.47226025  0.30536542  0.13339038  1.0
  Tc  Tc157  1  0.47226025  0.63869875  0.13339038  1.0
  Tc  Tc158  1  0.47226025  0.97203208  0.13339037  1.0
  Tc  Tc159  1  0.80559358  0.30536542  0.13339038  1.0
  Tc  Tc160  1  0.80559358  0.63869875  0.13339038  1.0
  Tc  Tc161  1  0.80559358  0.97203208  0.13339038  1.0
  Tc  Tc162  1  0.27785383  0.11095900  0.14171230  1.0
  Tc  Tc163  1  0.27785383  0.44429233  0.14171230  1.0
  Tc  Tc164  1  0.27785383  0.77762567  0.14171230  1.0
  Tc  Tc165  1  0.61118717  0.11095900  0.14171230  1.0
  Tc  Tc166  1  0.61118717  0.44429233  0.14171230  1.0
  Tc  Tc167  1  0.61118717  0.77762567  0.14171230  1.0
  Tc  Tc168  1  0.94452050  0.11095900  0.14171230  1.0
  Tc  Tc169  1  0.94452050  0.44429233  0.14171230  1.0
  Tc  Tc170  1  0.94452050  0.77762567  0.14171230  1.0
  Tc  Tc171  1  0.11118717  0.27762567  0.19171230  1.0
  Tc  Tc172  1  0.11118717  0.61095900  0.19171230  1.0
  Tc  Tc173  1  0.11118717  0.94429233  0.19171230  1.0
  Tc  Tc174  1  0.44452050  0.27762567  0.19171230  1.0
  Tc  Tc175  1  0.44452050  0.61095900  0.19171230  1.0
  Tc  Tc176  1  0.44452050  0.94429233  0.19171230  1.0
  Tc  Tc177  1  0.77785383  0.27762567  0.19171230  1.0
  Tc  Tc178  1  0.77785383  0.61095900  0.19171230  1.0
  Tc  Tc179  1  0.77785383  0.94429233  0.19171230  1.0
  Tc  Tc180  1  0.19440642  0.19440642  0.11667807  1.0
  Tc  Tc181  1  0.19440642  0.52773975  0.11667808  1.0
  Tc  Tc182  1  0.19440642  0.86107308  0.11667807  1.0
  Tc  Tc183  1  0.52773975  0.19440642  0.11667807  1.0
  Tc  Tc184  1  0.52773975  0.52773975  0.11667808  1.0
  Tc  Tc185  1  0.52773975  0.86107308  0.11667807  1.0
  Tc  Tc186  1  0.86107308  0.19440642  0.11667807  1.0
  Tc  Tc187  1  0.86107308  0.52773975  0.11667807  1.0
  Tc  Tc188  1  0.86107308  0.86107308  0.11667807  1.0
  Tc  Tc189  1  0.02773975  0.02773975  0.16667808  1.0
  Tc  Tc190  1  0.02773975  0.36107308  0.16667808  1.0
  Tc  Tc191  1  0.02773975  0.69440642  0.16667808  1.0
  Tc  Tc192  1  0.36107308  0.02773975  0.16667808  1.0
  Tc  Tc193  1  0.36107308  0.36107308  0.16667808  1.0
  Tc  Tc194  1  0.36107308  0.69440642  0.16667808  1.0
  Tc  Tc195  1  0.69440642  0.02773975  0.16667808  1.0
  Tc  Tc196  1  0.69440642  0.36107308  0.16667808  1.0
  Tc  Tc197  1  0.69440642  0.69440642  0.16667808  1.0
  Tc  Tc198  1  0.19440642  0.02796792  0.16660962  1.0
  Tc  Tc199  1  0.19440642  0.36130125  0.16660962  1.0
  Tc  Tc200  1  0.19440642  0.69463458  0.16660962  1.0
  Tc  Tc201  1  0.52773975  0.02796792  0.16660962  1.0
  Tc  Tc202  1  0.52773975  0.36130125  0.16660962  1.0
  Tc  Tc203  1  0.52773975  0.69463458  0.16660962  1.0
  Tc  Tc204  1  0.86107308  0.02796792  0.16660962  1.0
  Tc  Tc205  1  0.86107308  0.36130125  0.16660962  1.0
  Tc  Tc206  1  0.86107308  0.69463458  0.16660962  1.0
  Tc  Tc207  1  0.02773975  0.19463458  0.11660962  1.0
  Tc  Tc208  1  0.02773975  0.52796792  0.11660963  1.0
  Tc  Tc209  1  0.02773975  0.86130125  0.11660962  1.0
  Tc  Tc210  1  0.36107308  0.19463458  0.11660962  1.0
  Tc  Tc211  1  0.36107308  0.52796792  0.11660963  1.0
  Tc  Tc212  1  0.36107308  0.86130125  0.11660962  1.0
  Tc  Tc213  1  0.69440642  0.19463458  0.11660962  1.0
  Tc  Tc214  1  0.69440642  0.52796792  0.11660962  1.0
  Tc  Tc215  1  0.69440642  0.86130125  0.11660962  1.0
  Tc  Tc216  1  0.22214617  0.05570767  0.10828770  1.0
  Tc  Tc217  1  0.22214617  0.38904100  0.10828770  1.0
  Tc  Tc218  1  0.22214617  0.72237433  0.10828770  1.0
  Tc  Tc219  1  0.55547950  0.05570767  0.10828770  1.0
  Tc  Tc220  1  0.55547950  0.38904100  0.10828770  1.0
  Tc  Tc221  1  0.55547950  0.72237433  0.10828770  1.0
  Tc  Tc222  1  0.88881283  0.05570767  0.10828770  1.0
  Tc  Tc223  1  0.88881283  0.38904100  0.10828770  1.0
  Tc  Tc224  1  0.88881283  0.72237433  0.10828770  1.0
  Tc  Tc225  1  0.05547950  0.22237433  0.15828770  1.0
  Tc  Tc226  1  0.05547950  0.55570767  0.15828770  1.0
  Tc  Tc227  1  0.05547950  0.88904100  0.15828770  1.0
  Tc  Tc228  1  0.38881283  0.22237433  0.15828770  1.0
  Tc  Tc229  1  0.38881283  0.55570767  0.15828770  1.0
  Tc  Tc230  1  0.38881283  0.88904100  0.15828770  1.0
  Tc  Tc231  1  0.72214617  0.22237433  0.15828770  1.0
  Tc  Tc232  1  0.72214617  0.55570767  0.15828770  1.0
  Tc  Tc233  1  0.72214617  0.88904100  0.15828770  1.0
  Tc  Tc234  1  0.30559358  0.30559358  0.13332192  1.0
  Tc  Tc235  1  0.30559358  0.63892692  0.13332192  1.0
  Tc  Tc236  1  0.30559358  0.97226025  0.13332192  1.0
  Tc  Tc237  1  0.63892692  0.30559358  0.13332192  1.0
  Tc  Tc238  1  0.63892692  0.63892692  0.13332192  1.0
  Tc  Tc239  1  0.63892692  0.97226025  0.13332192  1.0
  Tc  Tc240  1  0.97226025  0.30559358  0.13332192  1.0
  Tc  Tc241  1  0.97226025  0.63892692  0.13332192  1.0
  Tc  Tc242  1  0.97226025  0.97226025  0.13332193  1.0
  Tc  Tc243  1  0.13892692  0.13892692  0.18332192  1.0
  Tc  Tc244  1  0.13892692  0.47226025  0.18332193  1.0
  Tc  Tc245  1  0.13892692  0.80559358  0.18332192  1.0
  Tc  Tc246  1  0.47226025  0.13892692  0.18332192  1.0
  Tc  Tc247  1  0.47226025  0.47226025  0.18332193  1.0
  Tc  Tc248  1  0.47226025  0.80559358  0.18332192  1.0
  Tc  Tc249  1  0.80559358  0.13892692  0.18332192  1.0
  Tc  Tc250  1  0.80559358  0.47226025  0.18332193  1.0
  Tc  Tc251  1  0.80559358  0.80559358  0.18332193  1.0
  Ni  Ni252  1  0.27777778  0.27777778  0.19166667  1.0
  Ni  Ni253  1  0.27777778  0.61111111  0.19166667  1.0
  Ni  Ni254  1  0.27777778  0.94444444  0.19166667  1.0
  Ni  Ni255  1  0.61111111  0.27777778  0.19166667  1.0
  Ni  Ni256  1  0.61111111  0.61111111  0.19166667  1.0
  Ni  Ni257  1  0.61111111  0.94444444  0.19166667  1.0
  Ni  Ni258  1  0.94444444  0.27777778  0.19166667  1.0
  Ni  Ni259  1  0.94444444  0.61111111  0.19166667  1.0
  Ni  Ni260  1  0.94444444  0.94444444  0.19166667  1.0
  Ni  Ni261  1  0.11111111  0.11111111  0.14166667  1.0
  Ni  Ni262  1  0.11111111  0.44444444  0.14166667  1.0
  Ni  Ni263  1  0.11111111  0.77777778  0.14166667  1.0
  Ni  Ni264  1  0.44444444  0.11111111  0.14166667  1.0
  Ni  Ni265  1  0.44444444  0.44444444  0.14166667  1.0
  Ni  Ni266  1  0.44444444  0.77777778  0.14166667  1.0
  Ni  Ni267  1  0.77777778  0.11111111  0.14166667  1.0
  Ni  Ni268  1  0.77777778  0.44444444  0.14166667  1.0
  Ni  Ni269  1  0.77777778  0.77777778  0.14166667  1.0
  Ni  Ni270  1  0.22222222  0.22222222  0.15833333  1.0
  Ni  Ni271  1  0.22222222  0.55555556  0.15833333  1.0
  Ni  Ni272  1  0.22222222  0.88888889  0.15833333  1.0
  Ni  Ni273  1  0.55555556  0.22222222  0.15833333  1.0
  Ni  Ni274  1  0.55555556  0.55555556  0.15833333  1.0
  Ni  Ni275  1  0.55555556  0.88888889  0.15833333  1.0
  Ni  Ni276  1  0.88888889  0.22222222  0.15833333  1.0
  Ni  Ni277  1  0.88888889  0.55555556  0.15833333  1.0
  Ni  Ni278  1  0.88888889  0.88888889  0.15833333  1.0
  Ni  Ni279  1  0.05555556  0.05555556  0.10833333  1.0
  Ni  Ni280  1  0.05555556  0.38888889  0.10833333  1.0
  Ni  Ni281  1  0.05555556  0.72222222  0.10833333  1.0
  Ni  Ni282  1  0.38888889  0.05555556  0.10833333  1.0
  Ni  Ni283  1  0.38888889  0.38888889  0.10833333  1.0
  Ni  Ni284  1  0.38888889  0.72222222  0.10833333  1.0
  Ni  Ni285  1  0.72222222  0.05555556  0.10833333  1.0
  Ni  Ni286  1  0.72222222  0.38888889  0.10833333  1.0
  Ni  Ni287  1  0.72222222  0.72222222  0.10833333  1.0
  Tc  Tc288  1  0.30559358  0.13869875  0.28339038  1.0
  Tc  Tc289  1  0.30559358  0.47203208  0.28339038  1.0
  Tc  Tc290  1  0.30559358  0.80536542  0.28339038  1.0
  Tc  Tc291  1  0.63892692  0.13869875  0.28339038  1.0
  Tc  Tc292  1  0.63892692  0.47203208  0.28339037  1.0
  Tc  Tc293  1  0.63892692  0.80536542  0.28339037  1.0
  Tc  Tc294  1  0.97226025  0.13869875  0.28339037  1.0
  Tc  Tc295  1  0.97226025  0.47203208  0.28339038  1.0
  Tc  Tc296  1  0.97226025  0.80536542  0.28339037  1.0
  Tc  Tc297  1  0.13892692  0.30536542  0.23339038  1.0
  Tc  Tc298  1  0.13892692  0.63869875  0.23339037  1.0
  Tc  Tc299  1  0.13892692  0.97203208  0.23339038  1.0
  Tc  Tc300  1  0.47226025  0.30536542  0.23339038  1.0
  Tc  Tc301  1  0.47226025  0.63869875  0.23339038  1.0
  Tc  Tc302  1  0.47226025  0.97203208  0.23339038  1.0
  Tc  Tc303  1  0.80559358  0.30536542  0.23339038  1.0
  Tc  Tc304  1  0.80559358  0.63869875  0.23339038  1.0
  Tc  Tc305  1  0.80559358  0.97203208  0.23339038  1.0
  Tc  Tc306  1  0.27785383  0.11095900  0.24171230  1.0
  Tc  Tc307  1  0.27785383  0.44429233  0.24171230  1.0
  Tc  Tc308  1  0.27785383  0.77762567  0.24171230  1.0
  Tc  Tc309  1  0.61118717  0.11095900  0.24171230  1.0
  Tc  Tc310  1  0.61118717  0.44429233  0.24171230  1.0
  Tc  Tc311  1  0.61118717  0.77762567  0.24171230  1.0
  Tc  Tc312  1  0.94452050  0.11095900  0.24171230  1.0
  Tc  Tc313  1  0.94452050  0.44429233  0.24171230  1.0
  Tc  Tc314  1  0.94452050  0.77762567  0.24171230  1.0
  Tc  Tc315  1  0.11118717  0.27762567  0.29171230  1.0
  Tc  Tc316  1  0.11118717  0.61095900  0.29171230  1.0
  Tc  Tc317  1  0.11118717  0.94429233  0.29171230  1.0
  Tc  Tc318  1  0.44452050  0.27762567  0.29171230  1.0
  Tc  Tc319  1  0.44452050  0.61095900  0.29171230  1.0
  Tc  Tc320  1  0.44452050  0.94429233  0.29171230  1.0
  Tc  Tc321  1  0.77785383  0.27762567  0.29171230  1.0
  Tc  Tc322  1  0.77785383  0.61095900  0.29171230  1.0
  Tc  Tc323  1  0.77785383  0.94429233  0.29171230  1.0
  Tc  Tc324  1  0.19440642  0.19440642  0.21667807  1.0
  Tc  Tc325  1  0.19440642  0.52773975  0.21667807  1.0
  Tc  Tc326  1  0.19440642  0.86107308  0.21667808  1.0
  Tc  Tc327  1  0.52773975  0.19440642  0.21667807  1.0
  Tc  Tc328  1  0.52773975  0.52773975  0.21667808  1.0
  Tc  Tc329  1  0.52773975  0.86107308  0.21667808  1.0
  Tc  Tc330  1  0.86107308  0.19440642  0.21667807  1.0
  Tc  Tc331  1  0.86107308  0.52773975  0.21667808  1.0
  Tc  Tc332  1  0.86107308  0.86107308  0.21667808  1.0
  Tc  Tc333  1  0.02773975  0.02773975  0.26667808  1.0
  Tc  Tc334  1  0.02773975  0.36107308  0.26667808  1.0
  Tc  Tc335  1  0.02773975  0.69440642  0.26667808  1.0
  Tc  Tc336  1  0.36107308  0.02773975  0.26667808  1.0
  Tc  Tc337  1  0.36107308  0.36107308  0.26667808  1.0
  Tc  Tc338  1  0.36107308  0.69440642  0.26667808  1.0
  Tc  Tc339  1  0.69440642  0.02773975  0.26667808  1.0
  Tc  Tc340  1  0.69440642  0.36107308  0.26667808  1.0
  Tc  Tc341  1  0.69440642  0.69440642  0.26667808  1.0
  Tc  Tc342  1  0.19440642  0.02796792  0.26660962  1.0
  Tc  Tc343  1  0.19440642  0.36130125  0.26660962  1.0
  Tc  Tc344  1  0.19440642  0.69463458  0.26660962  1.0
  Tc  Tc345  1  0.52773975  0.02796792  0.26660962  1.0
  Tc  Tc346  1  0.52773975  0.36130125  0.26660962  1.0
  Tc  Tc347  1  0.52773975  0.69463458  0.26660962  1.0
  Tc  Tc348  1  0.86107308  0.02796792  0.26660962  1.0
  Tc  Tc349  1  0.86107308  0.36130125  0.26660962  1.0
  Tc  Tc350  1  0.86107308  0.69463458  0.26660962  1.0
  Tc  Tc351  1  0.02773975  0.19463458  0.21660963  1.0
  Tc  Tc352  1  0.02773975  0.52796792  0.21660963  1.0
  Tc  Tc353  1  0.02773975  0.86130125  0.21660962  1.0
  Tc  Tc354  1  0.36107308  0.19463458  0.21660963  1.0
  Tc  Tc355  1  0.36107308  0.52796792  0.21660963  1.0
  Tc  Tc356  1  0.36107308  0.86130125  0.21660962  1.0
  Tc  Tc357  1  0.69440642  0.19463458  0.21660962  1.0
  Tc  Tc358  1  0.69440642  0.52796792  0.21660962  1.0
  Tc  Tc359  1  0.69440642  0.86130125  0.21660963  1.0
  Tc  Tc360  1  0.22214617  0.05570767  0.20828770  1.0
  Tc  Tc361  1  0.22214617  0.38904100  0.20828770  1.0
  Tc  Tc362  1  0.22214617  0.72237433  0.20828770  1.0
  Tc  Tc363  1  0.55547950  0.05570767  0.20828770  1.0
  Tc  Tc364  1  0.55547950  0.38904100  0.20828770  1.0
  Tc  Tc365  1  0.55547950  0.72237433  0.20828770  1.0
  Tc  Tc366  1  0.88881283  0.05570767  0.20828770  1.0
  Tc  Tc367  1  0.88881283  0.38904100  0.20828770  1.0
  Tc  Tc368  1  0.88881283  0.72237433  0.20828770  1.0
  Tc  Tc369  1  0.05547950  0.22237433  0.25828770  1.0
  Tc  Tc370  1  0.05547950  0.55570767  0.25828770  1.0
  Tc  Tc371  1  0.05547950  0.88904100  0.25828770  1.0
  Tc  Tc372  1  0.38881283  0.22237433  0.25828770  1.0
  Tc  Tc373  1  0.38881283  0.55570767  0.25828770  1.0
  Tc  Tc374  1  0.38881283  0.88904100  0.25828770  1.0
  Tc  Tc375  1  0.72214617  0.22237433  0.25828770  1.0
  Tc  Tc376  1  0.72214617  0.55570767  0.25828770  1.0
  Tc  Tc377  1  0.72214617  0.88904100  0.25828770  1.0
  Tc  Tc378  1  0.30559358  0.30559358  0.23332193  1.0
  Tc  Tc379  1  0.30559358  0.63892692  0.23332192  1.0
  Tc  Tc380  1  0.30559358  0.97226025  0.23332192  1.0
  Tc  Tc381  1  0.63892692  0.30559358  0.23332192  1.0
  Tc  Tc382  1  0.63892692  0.63892692  0.23332192  1.0
  Tc  Tc383  1  0.63892692  0.97226025  0.23332192  1.0
  Tc  Tc384  1  0.97226025  0.30559358  0.23332192  1.0
  Tc  Tc385  1  0.97226025  0.63892692  0.23332192  1.0
  Tc  Tc386  1  0.97226025  0.97226025  0.23332192  1.0
  Tc  Tc387  1  0.13892692  0.13892692  0.28332193  1.0
  Tc  Tc388  1  0.13892692  0.47226025  0.28332192  1.0
  Tc  Tc389  1  0.13892692  0.80559358  0.28332193  1.0
  Tc  Tc390  1  0.47226025  0.13892692  0.28332192  1.0
  Tc  Tc391  1  0.47226025  0.47226025  0.28332193  1.0
  Tc  Tc392  1  0.47226025  0.80559358  0.28332193  1.0
  Tc  Tc393  1  0.80559358  0.13892692  0.28332193  1.0
  Tc  Tc394  1  0.80559358  0.47226025  0.28332193  1.0
  Tc  Tc395  1  0.80559358  0.80559358  0.28332193  1.0
  Ni  Ni396  1  0.27777778  0.27777778  0.29166667  1.0
  Ni  Ni397  1  0.27777778  0.61111111  0.29166667  1.0
  Ni  Ni398  1  0.27777778  0.94444444  0.29166667  1.0
  Ni  Ni399  1  0.61111111  0.27777778  0.29166667  1.0
  Ni  Ni400  1  0.61111111  0.61111111  0.29166667  1.0
  Ni  Ni401  1  0.61111111  0.94444444  0.29166667  1.0
  Ni  Ni402  1  0.94444444  0.27777778  0.29166667  1.0
  Ni  Ni403  1  0.94444444  0.61111111  0.29166667  1.0
  Ni  Ni404  1  0.94444444  0.94444444  0.29166667  1.0
  Ni  Ni405  1  0.11111111  0.11111111  0.24166667  1.0
  Ni  Ni406  1  0.11111111  0.44444444  0.24166667  1.0
  Ni  Ni407  1  0.11111111  0.77777778  0.24166667  1.0
  Ni  Ni408  1  0.44444444  0.11111111  0.24166667  1.0
  Ni  Ni409  1  0.44444444  0.44444444  0.24166667  1.0
  Ni  Ni410  1  0.44444444  0.77777778  0.24166667  1.0
  Ni  Ni411  1  0.77777778  0.11111111  0.24166667  1.0
  Ni  Ni412  1  0.77777778  0.44444444  0.24166667  1.0
  Ni  Ni413  1  0.77777778  0.77777778  0.24166667  1.0
  Ni  Ni414  1  0.22222222  0.22222222  0.25833333  1.0
  Ni  Ni415  1  0.22222222  0.55555556  0.25833333  1.0
  Ni  Ni416  1  0.22222222  0.88888889  0.25833333  1.0
  Ni  Ni417  1  0.55555556  0.22222222  0.25833333  1.0
  Ni  Ni418  1  0.55555556  0.55555556  0.25833333  1.0
  Ni  Ni419  1  0.55555556  0.88888889  0.25833333  1.0
  Ni  Ni420  1  0.88888889  0.22222222  0.25833333  1.0
  Ni  Ni421  1  0.88888889  0.55555556  0.25833333  1.0
  Ni  Ni422  1  0.88888889  0.88888889  0.25833333  1.0
  Ni  Ni423  1  0.05555556  0.05555556  0.20833333  1.0
  Ni  Ni424  1  0.05555556  0.38888889  0.20833333  1.0
  Ni  Ni425  1  0.05555556  0.72222222  0.20833333  1.0
  Ni  Ni426  1  0.38888889  0.05555556  0.20833333  1.0
  Ni  Ni427  1  0.38888889  0.38888889  0.20833333  1.0
  Ni  Ni428  1  0.38888889  0.72222222  0.20833333  1.0
  Ni  Ni429  1  0.72222222  0.05555556  0.20833333  1.0
  Ni  Ni430  1  0.72222222  0.38888889  0.20833333  1.0
  Ni  Ni431  1  0.72222222  0.72222222  0.20833333  1.0
  Tc  Tc432  1  0.30559358  0.13869875  0.38339037  1.0
  Tc  Tc433  1  0.30559358  0.47203208  0.38339037  1.0
  Tc  Tc434  1  0.30559358  0.80536542  0.38339037  1.0
  Tc  Tc435  1  0.63892692  0.13869875  0.38339037  1.0
  Tc  Tc436  1  0.63892692  0.47203208  0.38339037  1.0
  Tc  Tc437  1  0.63892692  0.80536542  0.38339037  1.0
  Tc  Tc438  1  0.97226025  0.13869875  0.38339037  1.0
  Tc  Tc439  1  0.97226025  0.47203208  0.38339037  1.0
  Tc  Tc440  1  0.97226025  0.80536542  0.38339037  1.0
  Tc  Tc441  1  0.13892692  0.30536542  0.33339038  1.0
  Tc  Tc442  1  0.13892692  0.63869875  0.33339038  1.0
  Tc  Tc443  1  0.13892692  0.97203208  0.33339038  1.0
  Tc  Tc444  1  0.47226025  0.30536542  0.33339038  1.0
  Tc  Tc445  1  0.47226025  0.63869875  0.33339038  1.0
  Tc  Tc446  1  0.47226025  0.97203208  0.33339038  1.0
  Tc  Tc447  1  0.80559358  0.30536542  0.33339038  1.0
  Tc  Tc448  1  0.80559358  0.63869875  0.33339038  1.0
  Tc  Tc449  1  0.80559358  0.97203208  0.33339038  1.0
  Tc  Tc450  1  0.27785383  0.11095900  0.34171230  1.0
  Tc  Tc451  1  0.27785383  0.44429233  0.34171230  1.0
  Tc  Tc452  1  0.27785383  0.77762567  0.34171230  1.0
  Tc  Tc453  1  0.61118717  0.11095900  0.34171230  1.0
  Tc  Tc454  1  0.61118717  0.44429233  0.34171230  1.0
  Tc  Tc455  1  0.61118717  0.77762567  0.34171230  1.0
  Tc  Tc456  1  0.94452050  0.11095900  0.34171230  1.0
  Tc  Tc457  1  0.94452050  0.44429233  0.34171230  1.0
  Tc  Tc458  1  0.94452050  0.77762567  0.34171230  1.0
  Tc  Tc459  1  0.11118717  0.27762567  0.39171230  1.0
  Tc  Tc460  1  0.11118717  0.61095900  0.39171230  1.0
  Tc  Tc461  1  0.11118717  0.94429233  0.39171230  1.0
  Tc  Tc462  1  0.44452050  0.27762567  0.39171230  1.0
  Tc  Tc463  1  0.44452050  0.61095900  0.39171230  1.0
  Tc  Tc464  1  0.44452050  0.94429233  0.39171230  1.0
  Tc  Tc465  1  0.77785383  0.27762567  0.39171230  1.0
  Tc  Tc466  1  0.77785383  0.61095900  0.39171230  1.0
  Tc  Tc467  1  0.77785383  0.94429233  0.39171230  1.0
  Tc  Tc468  1  0.19440642  0.19440642  0.31667807  1.0
  Tc  Tc469  1  0.19440642  0.52773975  0.31667808  1.0
  Tc  Tc470  1  0.19440642  0.86107308  0.31667807  1.0
  Tc  Tc471  1  0.52773975  0.19440642  0.31667807  1.0
  Tc  Tc472  1  0.52773975  0.52773975  0.31667808  1.0
  Tc  Tc473  1  0.52773975  0.86107308  0.31667807  1.0
  Tc  Tc474  1  0.86107308  0.19440642  0.31667807  1.0
  Tc  Tc475  1  0.86107308  0.52773975  0.31667808  1.0
  Tc  Tc476  1  0.86107308  0.86107308  0.31667807  1.0
  Tc  Tc477  1  0.02773975  0.02773975  0.36667808  1.0
  Tc  Tc478  1  0.02773975  0.36107308  0.36667807  1.0
  Tc  Tc479  1  0.02773975  0.69440642  0.36667808  1.0
  Tc  Tc480  1  0.36107308  0.02773975  0.36667807  1.0
  Tc  Tc481  1  0.36107308  0.36107308  0.36667807  1.0
  Tc  Tc482  1  0.36107308  0.69440642  0.36667807  1.0
  Tc  Tc483  1  0.69440642  0.02773975  0.36667807  1.0
  Tc  Tc484  1  0.69440642  0.36107308  0.36667808  1.0
  Tc  Tc485  1  0.69440642  0.69440642  0.36667807  1.0
  Tc  Tc486  1  0.19440642  0.02796792  0.36660962  1.0
  Tc  Tc487  1  0.19440642  0.36130125  0.36660962  1.0
  Tc  Tc488  1  0.19440642  0.69463458  0.36660962  1.0
  Tc  Tc489  1  0.52773975  0.02796792  0.36660962  1.0
  Tc  Tc490  1  0.52773975  0.36130125  0.36660962  1.0
  Tc  Tc491  1  0.52773975  0.69463458  0.36660962  1.0
  Tc  Tc492  1  0.86107308  0.02796792  0.36660962  1.0
  Tc  Tc493  1  0.86107308  0.36130125  0.36660962  1.0
  Tc  Tc494  1  0.86107308  0.69463458  0.36660962  1.0
  Tc  Tc495  1  0.02773975  0.19463458  0.31660963  1.0
  Tc  Tc496  1  0.02773975  0.52796792  0.31660963  1.0
  Tc  Tc497  1  0.02773975  0.86130125  0.31660962  1.0
  Tc  Tc498  1  0.36107308  0.19463458  0.31660963  1.0
  Tc  Tc499  1  0.36107308  0.52796792  0.31660963  1.0
  Tc  Tc500  1  0.36107308  0.86130125  0.31660962  1.0
  Tc  Tc501  1  0.69440642  0.19463458  0.31660962  1.0
  Tc  Tc502  1  0.69440642  0.52796792  0.31660963  1.0
  Tc  Tc503  1  0.69440642  0.86130125  0.31660962  1.0
  Tc  Tc504  1  0.22214617  0.05570767  0.30828770  1.0
  Tc  Tc505  1  0.22214617  0.38904100  0.30828770  1.0
  Tc  Tc506  1  0.22214617  0.72237433  0.30828770  1.0
  Tc  Tc507  1  0.55547950  0.05570767  0.30828770  1.0
  Tc  Tc508  1  0.55547950  0.38904100  0.30828770  1.0
  Tc  Tc509  1  0.55547950  0.72237433  0.30828770  1.0
  Tc  Tc510  1  0.88881283  0.05570767  0.30828770  1.0
  Tc  Tc511  1  0.88881283  0.38904100  0.30828770  1.0
  Tc  Tc512  1  0.88881283  0.72237433  0.30828770  1.0
  Tc  Tc513  1  0.05547950  0.22237433  0.35828770  1.0
  Tc  Tc514  1  0.05547950  0.55570767  0.35828770  1.0
  Tc  Tc515  1  0.05547950  0.88904100  0.35828770  1.0
  Tc  Tc516  1  0.38881283  0.22237433  0.35828770  1.0
  Tc  Tc517  1  0.38881283  0.55570767  0.35828770  1.0
  Tc  Tc518  1  0.38881283  0.88904100  0.35828770  1.0
  Tc  Tc519  1  0.72214617  0.22237433  0.35828770  1.0
  Tc  Tc520  1  0.72214617  0.55570767  0.35828770  1.0
  Tc  Tc521  1  0.72214617  0.88904100  0.35828770  1.0
  Tc  Tc522  1  0.30559358  0.30559358  0.33332192  1.0
  Tc  Tc523  1  0.30559358  0.63892692  0.33332192  1.0
  Tc  Tc524  1  0.30559358  0.97226025  0.33332192  1.0
  Tc  Tc525  1  0.63892692  0.30559358  0.33332192  1.0
  Tc  Tc526  1  0.63892692  0.63892692  0.33332192  1.0
  Tc  Tc527  1  0.63892692  0.97226025  0.33332192  1.0
  Tc  Tc528  1  0.97226025  0.30559358  0.33332192  1.0
  Tc  Tc529  1  0.97226025  0.63892692  0.33332192  1.0
  Tc  Tc530  1  0.97226025  0.97226025  0.33332192  1.0
  Tc  Tc531  1  0.13892692  0.13892692  0.38332193  1.0
  Tc  Tc532  1  0.13892692  0.47226025  0.38332193  1.0
  Tc  Tc533  1  0.13892692  0.80559358  0.38332193  1.0
  Tc  Tc534  1  0.47226025  0.13892692  0.38332193  1.0
  Tc  Tc535  1  0.47226025  0.47226025  0.38332193  1.0
  Tc  Tc536  1  0.47226025  0.80559358  0.38332193  1.0
  Tc  Tc537  1  0.80559358  0.13892692  0.38332193  1.0
  Tc  Tc538  1  0.80559358  0.47226025  0.38332193  1.0
  Tc  Tc539  1  0.80559358  0.80559358  0.38332193  1.0
  Ni  Ni540  1  0.27777778  0.27777778  0.39166667  1.0
  Ni  Ni541  1  0.27777778  0.61111111  0.39166667  1.0
  Ni  Ni542  1  0.27777778  0.94444444  0.39166667  1.0
  Ni  Ni543  1  0.61111111  0.27777778  0.39166667  1.0
  Ni  Ni544  1  0.61111111  0.61111111  0.39166667  1.0
  Ni  Ni545  1  0.61111111  0.94444444  0.39166667  1.0
  Ni  Ni546  1  0.94444444  0.27777778  0.39166667  1.0
  Ni  Ni547  1  0.94444444  0.61111111  0.39166667  1.0
  Ni  Ni548  1  0.94444444  0.94444444  0.39166667  1.0
  Ni  Ni549  1  0.11111111  0.11111111  0.34166667  1.0
  Ni  Ni550  1  0.11111111  0.44444444  0.34166667  1.0
  Ni  Ni551  1  0.11111111  0.77777778  0.34166667  1.0
  Ni  Ni552  1  0.44444444  0.11111111  0.34166667  1.0
  Ni  Ni553  1  0.44444444  0.44444444  0.34166667  1.0
  Ni  Ni554  1  0.44444444  0.77777778  0.34166667  1.0
  Ni  Ni555  1  0.77777778  0.11111111  0.34166667  1.0
  Ni  Ni556  1  0.77777778  0.44444444  0.34166667  1.0
  Ni  Ni557  1  0.77777778  0.77777778  0.34166667  1.0
  Ni  Ni558  1  0.22222222  0.22222222  0.35833333  1.0
  Ni  Ni559  1  0.22222222  0.55555556  0.35833333  1.0
  Ni  Ni560  1  0.22222222  0.88888889  0.35833333  1.0
  Ni  Ni561  1  0.55555556  0.22222222  0.35833333  1.0
  Ni  Ni562  1  0.55555556  0.55555556  0.35833333  1.0
  Ni  Ni563  1  0.55555556  0.88888889  0.35833333  1.0
  Ni  Ni564  1  0.88888889  0.22222222  0.35833333  1.0
  Ni  Ni565  1  0.88888889  0.55555556  0.35833333  1.0
  Ni  Ni566  1  0.88888889  0.88888889  0.35833333  1.0
  Ni  Ni567  1  0.05555556  0.05555556  0.30833333  1.0
  Ni  Ni568  1  0.05555556  0.38888889  0.30833333  1.0
  Ni  Ni569  1  0.05555556  0.72222222  0.30833333  1.0
  Ni  Ni570  1  0.38888889  0.05555556  0.30833333  1.0
  Ni  Ni571  1  0.38888889  0.38888889  0.30833333  1.0
  Ni  Ni572  1  0.38888889  0.72222222  0.30833333  1.0
  Ni  Ni573  1  0.72222222  0.05555556  0.30833333  1.0
  Ni  Ni574  1  0.72222222  0.38888889  0.30833333  1.0
  Ni  Ni575  1  0.72222222  0.72222222  0.30833333  1.0
