# generated using pymatgen
data_TcNi
_symmetry_space_group_name_H-M   'P 1'
_cell_length_a   14.90741583
_cell_length_b   18.68244007
_cell_length_c   25.66524772
_cell_angle_alpha   92.53918340
_cell_angle_beta   94.73634409
_cell_angle_gamma   103.22759889
_symmetry_Int_Tables_number   1
_chemical_formula_structural   TcNi
_chemical_formula_sum   'Tc108 Ni108'
_cell_volume   6919.81522721
_cell_formula_units_Z   108
loop_
 _symmetry_equiv_pos_site_id
 _symmetry_equiv_pos_as_xyz
  1  'x, y, z'
loop_
 _atom_site_type_symbol
 _atom_site_label
 _atom_site_symmetry_multiplicity
 _atom_site_fract_x
 _atom_site_fract_y
 _atom_site_fract_z
 _atom_site_occupancy
  Ni  Ni0  1  0.10185185  0.27314815  0.01388889  1.0
  Ni  Ni1  1  0.10185185  0.60648148  0.01388889  1.0
  Ni  Ni2  1  0.10185185  0.93981481  0.01388889  1.0
  Ni  Ni3  1  0.43518519  0.27314815  0.01388889  1.0
  Ni  Ni4  1  0.43518519  0.60648148  0.01388889  1.0
  Ni  Ni5  1  0.43518519  0.93981481  0.01388889  1.0
  Ni  Ni6  1  0.76851852  0.27314815  0.01388889  1.0
  Ni  Ni7  1  0.76851852  0.60648148  0.01388889  1.0
  Ni  Ni8  1  0.76851852  0.93981481  0.01388889  1.0
  Ni  Ni9  1  0.31296296  0.16203704  0.04722222  1.0
  Ni  Ni10  1  0.31296296  0.49537037  0.04722222  1.0
  Ni  Ni11  1  0.31296296  0.82870370  0.04722222  1.0
  Ni  Ni12  1  0.64629630  0.16203704  0.04722222  1.0
  Ni  Ni13  1  0.64629630  0.49537037  0.04722222  1.0
  Ni  Ni14  1  0.64629630  0.82870370  0.04722222  1.0
  Ni  Ni15  1  0.97962963  0.16203704  0.04722222  1.0
  Ni  Ni16  1  0.97962963  0.49537037  0.04722222  1.0
  Ni  Ni17  1  0.97962963  0.82870370  0.04722222  1.0
  Ni  Ni18  1  0.19074074  0.05092593  0.08055556  1.0
  Ni  Ni19  1  0.19074074  0.38425926  0.08055556  1.0
  Ni  Ni20  1  0.19074074  0.71759259  0.08055556  1.0
  Ni  Ni21  1  0.52407407  0.05092593  0.08055556  1.0
  Ni  Ni22  1  0.52407407  0.38425926  0.08055556  1.0
  Ni  Ni23  1  0.52407407  0.71759259  0.08055556  1.0
  Ni  Ni24  1  0.85740741  0.05092593  0.08055556  1.0
  Ni  Ni25  1  0.85740741  0.38425926  0.08055556  1.0
  Ni  Ni26  1  0.85740741  0.71759259  0.08055556  1.0
  Ni  Ni27  1  0.06851852  0.27314815  0.11388889  1.0
  Ni  Ni28  1  0.06851852  0.60648148  0.11388889  1.0
  Ni  Ni29  1  0.06851852  0.93981481  0.11388889  1.0
  Ni  Ni30  1  0.40185185  0.27314815  0.11388889  1.0
  Ni  Ni31  1  0.40185185  0.60648148  0.11388889  1.0
  Ni  Ni32  1  0.40185185  0.93981481  0.11388889  1.0
  Ni  Ni33  1  0.73518519  0.27314815  0.11388889  1.0
  Ni  Ni34  1  0.73518519  0.60648148  0.11388889  1.0
  Ni  Ni35  1  0.73518519  0.93981481  0.11388889  1.0
  Ni  Ni36  1  0.27962963  0.16203704  0.14722222  1.0
  Ni  Ni37  1  0.27962963  0.49537037  0.14722222  1.0
  Ni  Ni38  1  0.27962963  0.82870370  0.14722222  1.0
  Ni  Ni39  1  0.61296296  0.16203704  0.14722222  1.0
  Ni  Ni40  1  0.61296296  0.49537037  0.14722222  1.0
  Ni  Ni41  1  0.61296296  0.82870370  0.14722222  1.0
  Ni  Ni42  1  0.94629630  0.16203704  0.14722222  1.0
  Ni  Ni43  1  0.94629630  0.49537037  0.14722222  1.0
  Ni  Ni44  1  0.94629630  0.82870370  0.14722222  1.0
  Ni  Ni45  1  0.15740741  0.05092593  0.18055556  1.0
  Ni  Ni46  1  0.15740741  0.38425926  0.18055556  1.0
  Ni  Ni47  1  0.15740741  0.71759259  0.18055556  1.0
  Ni  Ni48  1  0.49074074  0.05092593  0.18055556  1.0
  Ni  Ni49  1  0.49074074  0.38425926  0.18055556  1.0
  Ni  Ni50  1  0.49074074  0.71759259  0.18055556  1.0
  Ni  Ni51  1  0.82407407  0.05092593  0.18055556  1.0
  Ni  Ni52  1  0.82407407  0.38425926  0.18055556  1.0
  Ni  Ni53  1  0.82407407  0.71759259  0.18055556  1.0
  Ni  Ni54  1  0.03518519  0.27314815  0.21388889  1.0
  Ni  Ni55  1  0.03518519  0.60648148  0.21388889  1.0
  Ni  Ni56  1  0.03518519  0.93981481  0.21388889  1.0
  Ni  Ni57  1  0.36851852  0.27314815  0.21388889  1.0
  Ni  Ni58  1  0.36851852  0.60648148  0.21388889  1.0
  Ni  Ni59  1  0.36851852  0.93981481  0.21388889  1.0
  Ni  Ni60  1  0.70185185  0.27314815  0.21388889  1.0
  Ni  Ni61  1  0.70185185  0.60648148  0.21388889  1.0
  Ni  Ni62  1  0.70185185  0.93981481  0.21388889  1.0
  Ni  Ni63  1  0.24629630  0.16203704  0.24722222  1.0
  Ni  Ni64  1  0.24629630  0.49537037  0.24722222  1.0
  Ni  Ni65  1  0.24629630  0.82870370  0.24722222  1.0
  Ni  Ni66  1  0.57962963  0.16203704  0.24722222  1.0
  Ni  Ni67  1  0.57962963  0.49537037  0.24722222  1.0
  Ni  Ni68  1  0.57962963  0.82870370  0.24722222  1.0
  Ni  Ni69  1  0.91296296  0.16203704  0.24722222  1.0
  Ni  Ni70  1  0.91296296  0.49537037  0.24722222  1.0
  Ni  Ni71  1  0.91296296  0.82870370  0.24722222  1.0
  Ni  Ni72  1  0.12407407  0.05092593  0.28055556  1.0
  Ni  Ni73  1  0.12407407  0.38425926  0.28055556  1.0
  Ni  Ni74  1  0.12407407  0.71759259  0.28055556  1.0
  Ni  Ni75  1  0.45740741  0.05092593  0.28055556  1.0
  Ni  Ni76  1  0.45740741  0.38425926  0.28055556  1.0
  Ni  Ni77  1  0.45740741  0.71759259  0.28055556  1.0
  Ni  Ni78  1  0.79074074  0.05092593  0.28055556  1.0
  Ni  Ni79  1  0.79074074  0.38425926  0.28055556  1.0
  Ni  Ni80  1  0.79074074  0.71759259  0.28055556  1.0
  Ni  Ni81  1  0.00185185  0.27314815  0.31388889  1.0
  Ni  Ni82  1  0.00185185  0.60648148  0.31388889  1.0
  Ni  Ni83  1  0.00185185  0.93981481  0.31388889  1.0
  Ni  Ni84  1  0.33518519  0.27314815  0.31388889  1.0
  Ni  Ni85  1  0.33518519  0.60648148  0.31388889  1.0
  Ni  Ni86  1  0.33518519  0.93981481  0.31388889  1.0
  Ni  Ni87  1  0.66851852  0.27314815  0.31388889  1.0
  Ni  Ni88  1  0.66851852  0.60648148  0.31388889  1.0
  Ni  Ni89  1  0.66851852  0.93981481  0.31388889  1.0
  Ni  Ni90  1  0.21296296  0.16203704  0.34722222  1.0
  Ni  Ni91  1  0.21296296  0.49537037  0.34722222  1.0
  Ni  Ni92  1  0.21296296  0.82870370  0.34722222  1.0
  Ni  Ni93  1  0.54629630  0.16203704  0.34722222  1.0
  Ni  Ni94  1  0.54629630  0.49537037  0.34722222  1.0
  Ni  Ni95  1  0.54629630  0.82870370  0.34722222  1.0
  Ni  Ni96  1  0.87962963  0.16203704  0.34722222  1.0
  Ni  Ni97  1  0.87962963  0.49537037  0.34722222  1.0
  Ni  Ni98  1  0.87962963  0.82870370  0.34722222  1.0
  Ni  Ni99  1  0.09074074  0.05092593  0.38055556  1.0
  Ni  Ni100  1  0.09074074  0.38425926  0.38055556  1.0
  Ni  Ni101  1  0.09074074  0.71759259  0.38055556  1.0
  Ni  Ni102  1  0.42407407  0.05092593  0.38055556  1.0
  Ni  Ni103  1  0.42407407  0.38425926  0.38055556  1.0
  Ni  Ni104  1  0.42407407  0.71759259  0.38055556  1.0
  Ni  Ni105  1  0.75740741  0.05092593  0.38055556  1.0
  Ni  Ni106  1  0.75740741  0.38425926  0.38055556  1.0
  Ni  Ni107  1  0.75740741  0.71759259  0.38055556  1.0
  Tc  Tc108  1  0.01481481  0.03240741  0.05277778  1.0
  Tc  Tc109  1  0.01481481  0.36574074  0.05277778  1.0
  Tc  Tc110  1  0.01481481  0.69907407  0.05277778  1.0
  Tc  Tc111  1  0.34814815  0.03240741  0.05277778  1.0
  Tc  Tc112  1  0.34814815  0.36574074  0.05277778  1.0
  Tc  Tc113  1  0.34814815  0.69907407  0.05277778  1.0
  Tc  Tc114  1  0.68148148  0.03240741  0.05277778  1.0
  Tc  Tc115  1  0.68148148  0.36574074  0.05277778  1.0
  Tc  Tc116  1  0.68148148  0.69907407  0.05277778  1.0
  Tc  Tc117  1  0.13703704  0.14351852  0.01944444  1.0
  Tc  Tc118  1  0.13703704  0.47685185  0.01944444  1.0
  Tc  Tc119  1  0.13703704  0.81018519  0.01944444  1.0
  Tc  Tc120  1  0.47037037  0.14351852  0.01944444  1.0
  Tc  Tc121  1  0.47037037  0.47685185  0.01944444  1.0
  Tc  Tc122  1  0.47037037  0.81018519  0.01944444  1.0
  Tc  Tc123  1  0.80370370  0.14351852  0.01944444  1.0
  Tc  Tc124  1  0.80370370  0.47685185  0.01944444  1.0
  Tc  Tc125  1  0.80370370  0.81018519  0.01944444  1.0
  Tc  Tc126  1  0.10370370  0.14351852  0.11944444  1.0
  Tc  Tc127  1  0.10370370  0.47685185  0.11944444  1.0
  Tc  Tc128  1  0.10370370  0.81018519  0.11944444  1.0
  Tc  Tc129  1  0.43703704  0.14351852  0.11944444  1.0
  Tc  Tc130  1  0.43703704  0.47685185  0.11944444  1.0
  Tc  Tc131  1  0.43703704  0.81018519  0.11944444  1.0
  Tc  Tc132  1  0.77037037  0.14351852  0.11944444  1.0
  Tc  Tc133  1  0.77037037  0.47685185  0.11944444  1.0
  Tc  Tc134  1  0.77037037  0.81018519  0.11944444  1.0
  Tc  Tc135  1  0.22592593  0.25462963  0.08611111  1.0
  Tc  Tc136  1  0.22592593  0.58796296  0.08611111  1.0
  Tc  Tc137  1  0.22592593  0.92129630  0.08611111  1.0
  Tc  Tc138  1  0.55925926  0.25462963  0.08611111  1.0
  Tc  Tc139  1  0.55925926  0.58796296  0.08611111  1.0
  Tc  Tc140  1  0.55925926  0.92129630  0.08611111  1.0
  Tc  Tc141  1  0.89259259  0.25462963  0.08611111  1.0
  Tc  Tc142  1  0.89259259  0.58796296  0.08611111  1.0
  Tc  Tc143  1  0.89259259  0.92129630  0.08611111  1.0
  Tc  Tc144  1  0.19259259  0.25462963  0.18611111  1.0
  Tc  Tc145  1  0.19259259  0.58796296  0.18611111  1.0
  Tc  Tc146  1  0.19259259  0.92129630  0.18611111  1.0
  Tc  Tc147  1  0.52592593  0.25462963  0.18611111  1.0
  Tc  Tc148  1  0.52592593  0.58796296  0.18611111  1.0
  Tc  Tc149  1  0.52592593  0.92129630  0.18611111  1.0
  Tc  Tc150  1  0.85925926  0.25462963  0.18611111  1.0
  Tc  Tc151  1  0.85925926  0.58796296  0.18611111  1.0
  Tc  Tc152  1  0.85925926  0.92129630  0.18611111  1.0
  Tc  Tc153  1  0.31481481  0.03240741  0.15277778  1.0
  Tc  Tc154  1  0.31481481  0.36574074  0.15277778  1.0
  Tc  Tc155  1  0.31481481  0.69907407  0.15277778  1.0
  Tc  Tc156  1  0.64814815  0.03240741  0.15277778  1.0
  Tc  Tc157  1  0.64814815  0.36574074  0.15277778  1.0
  Tc  Tc158  1  0.64814815  0.69907407  0.15277778  1.0
  Tc  Tc159  1  0.98148148  0.03240741  0.15277778  1.0
  Tc  Tc160  1  0.98148148  0.36574074  0.15277778  1.0
  Tc  Tc161  1  0.98148148  0.69907407  0.15277778  1.0
  Tc  Tc162  1  0.28148148  0.03240741  0.25277778  1.0
  Tc  Tc163  1  0.28148148  0.36574074  0.25277778  1.0
  Tc  Tc164  1  0.28148148  0.69907407  0.25277778  1.0
  Tc  Tc165  1  0.61481481  0.03240741  0.25277778  1.0
  Tc  Tc166  1  0.61481481  0.36574074  0.25277778  1.0
  Tc  Tc167  1  0.61481481  0.69907407  0.25277778  1.0
  Tc  Tc168  1  0.94814815  0.03240741  0.25277778  1.0
  Tc  Tc169  1  0.94814815  0.36574074  0.25277778  1.0
  Tc  Tc170  1  0.94814815  0.69907407  0.25277778  1.0
  Tc  Tc171  1  0.07037037  0.14351852  0.21944444  1.0
  Tc  Tc172  1  0.07037037  0.47685185  0.21944444  1.0
  Tc  Tc173  1  0.07037037  0.81018519  0.21944444  1.0
  Tc  Tc174  1  0.40370370  0.14351852  0.21944444  1.0
  Tc  Tc175  1  0.40370370  0.47685185  0.21944444  1.0
  Tc  Tc176  1  0.40370370  0.81018519  0.21944444  1.0
  Tc  Tc177  1  0.73703704  0.14351852  0.21944444  1.0
  Tc  Tc178  1  0.73703704  0.47685185  0.21944444  1.0
  Tc  Tc179  1  0.73703704  0.81018519  0.21944444  1.0
  Tc  Tc180  1  0.03703704  0.14351852  0.31944444  1.0
  Tc  Tc181  1  0.03703704  0.47685185  0.31944444  1.0
  Tc  Tc182  1  0.03703704  0.81018519  0.31944444  1.0
  Tc  Tc183  1  0.37037037  0.14351852  0.31944444  1.0
  Tc  Tc184  1  0.37037037  0.47685185  0.31944444  1.0
  Tc  Tc185  1  0.37037037  0.81018519  0.31944444  1.0
  Tc  Tc186  1  0.70370370  0.14351852  0.31944444  1.0
  Tc  Tc187  1  0.70370370  0.47685185  0.31944444  1.0
  Tc  Tc188  1  0.70370370  0.81018519  0.31944444  1.0
  Tc  Tc189  1  0.15925926  0.25462963  0.28611111  1.0
  Tc  Tc190  1  0.15925926  0.58796296  0.28611111  1.0
  Tc  Tc191  1  0.15925926  0.92129630  0.28611111  1.0
  Tc  Tc192  1  0.49259259  0.25462963  0.28611111  1.0
  Tc  Tc193  1  0.49259259  0.58796296  0.28611111  1.0
  Tc  Tc194  1  0.49259259  0.92129630  0.28611111  1.0
  Tc  Tc195  1  0.82592593  0.25462963  0.28611111  1.0
  Tc  Tc196  1  0.82592593  0.58796296  0.28611111  1.0
  Tc  Tc197  1  0.82592593  0.92129630  0.28611111  1.0
  Tc  Tc198  1  0.12592593  0.25462963  0.38611111  1.0
  Tc  Tc199  1  0.12592593  0.58796296  0.38611111  1.0
  Tc  Tc200  1  0.12592593  0.92129630  0.38611111  1.0
  Tc  Tc201  1  0.45925926  0.25462963  0.38611111  1.0
  Tc  Tc202  1  0.45925926  0.58796296  0.38611111  1.0
  Tc  Tc203  1  0.45925926  0.92129630  0.38611111  1.0
  Tc  Tc204  1  0.79259259  0.25462963  0.38611111  1.0
  Tc  Tc205  1  0.79259259  0.58796296  0.38611111  1.0
  Tc  Tc206  1  0.79259259  0.92129630  0.38611111  1.0
  Tc  Tc207  1  0.24814815  0.03240741  0.35277778  1.0
  Tc  Tc208  1  0.24814815  0.36574074  0.35277778  1.0
  Tc  Tc209  1  0.24814815  0.69907407  0.35277778  1.0
  Tc  Tc210  1  0.58148148  0.03240741  0.35277778  1.0
  Tc  Tc211  1  0.58148148  0.36574074  0.35277778  1.0
  Tc  Tc212  1  0.58148148  0.69907407  0.35277778  1.0
  Tc  Tc213  1  0.91481481  0.03240741  0.35277778  1.0
  Tc  Tc214  1  0.91481481  0.36574074  0.35277778  1.0
  Tc  Tc215  1  0.91481481  0.69907407  0.35277778  1.0
