# generated using pymatgen
data_TcNi
_symmetry_space_group_name_H-M   'P 1'
_cell_length_a   7.96249083
_cell_length_b   20.30849151
_cell_length_c   37.80830700
_cell_angle_alpha   51.64248667
_cell_angle_beta   90.00000000
_cell_angle_gamma   66.91620661
_symmetry_Int_Tables_number   1
_chemical_formula_structural   TcNi
_chemical_formula_sum   'Tc72 Ni72'
_cell_volume   4151.88913633
_cell_formula_units_Z   72
loop_
 _symmetry_equiv_pos_site_id
 _symmetry_equiv_pos_as_xyz
  1  'x, y, z'
loop_
 _atom_site_type_symbol
 _atom_site_label
 _atom_site_symmetry_multiplicity
 _atom_site_fract_x
 _atom_site_fract_y
 _atom_site_fract_z
 _atom_site_occupancy
  Tc  Tc0  1  0.11111111  0.05555556  0.07407407  1.0
  Tc  Tc1  1  0.11111111  0.38888889  0.07407407  1.0
  Tc  Tc2  1  0.11111111  0.72222222  0.07407407  1.0
  Tc  Tc3  1  0.44444444  0.05555556  0.07407407  1.0
  Tc  Tc4  1  0.44444444  0.38888889  0.07407407  1.0
  Tc  Tc5  1  0.44444444  0.72222222  0.07407407  1.0
  Tc  Tc6  1  0.77777778  0.05555556  0.07407407  1.0
  Tc  Tc7  1  0.77777778  0.38888889  0.07407407  1.0
  Tc  Tc8  1  0.77777778  0.72222222  0.07407407  1.0
  Tc  Tc9  1  0.11111111  0.22222222  0.01851852  1.0
  Tc  Tc10  1  0.11111111  0.55555556  0.01851852  1.0
  Tc  Tc11  1  0.11111111  0.88888889  0.01851852  1.0
  Tc  Tc12  1  0.44444444  0.22222222  0.01851852  1.0
  Tc  Tc13  1  0.44444444  0.55555556  0.01851852  1.0
  Tc  Tc14  1  0.44444444  0.88888889  0.01851852  1.0
  Tc  Tc15  1  0.77777778  0.22222222  0.01851852  1.0
  Tc  Tc16  1  0.77777778  0.55555556  0.01851852  1.0
  Tc  Tc17  1  0.77777778  0.88888889  0.01851852  1.0
  Ni  Ni18  1  0.00000000  0.16666667  0.09259259  1.0
  Ni  Ni19  1  0.00000000  0.50000000  0.09259259  1.0
  Ni  Ni20  1  0.00000000  0.83333333  0.09259259  1.0
  Ni  Ni21  1  0.33333333  0.16666667  0.09259259  1.0
  Ni  Ni22  1  0.33333333  0.50000000  0.09259259  1.0
  Ni  Ni23  1  0.33333333  0.83333333  0.09259259  1.0
  Ni  Ni24  1  0.66666667  0.16666667  0.09259259  1.0
  Ni  Ni25  1  0.66666667  0.50000000  0.09259259  1.0
  Ni  Ni26  1  0.66666667  0.83333333  0.09259259  1.0
  Ni  Ni27  1  0.00000000  0.00000000  0.03703704  1.0
  Ni  Ni28  1  0.00000000  0.33333333  0.03703704  1.0
  Ni  Ni29  1  0.00000000  0.66666667  0.03703704  1.0
  Ni  Ni30  1  0.33333333  0.00000000  0.03703704  1.0
  Ni  Ni31  1  0.33333333  0.33333333  0.03703704  1.0
  Ni  Ni32  1  0.33333333  0.66666667  0.03703704  1.0
  Ni  Ni33  1  0.66666667  0.00000000  0.03703704  1.0
  Ni  Ni34  1  0.66666667  0.33333333  0.03703704  1.0
  Ni  Ni35  1  0.66666667  0.66666667  0.03703704  1.0
  Tc  Tc36  1  0.11111111  0.05555556  0.18518519  1.0
  Tc  Tc37  1  0.11111111  0.38888889  0.18518519  1.0
  Tc  Tc38  1  0.11111111  0.72222222  0.18518519  1.0
  Tc  Tc39  1  0.44444444  0.05555556  0.18518519  1.0
  Tc  Tc40  1  0.44444444  0.38888889  0.18518519  1.0
  Tc  Tc41  1  0.44444444  0.72222222  0.18518519  1.0
  Tc  Tc42  1  0.77777778  0.05555556  0.18518519  1.0
  Tc  Tc43  1  0.77777778  0.38888889  0.18518519  1.0
  Tc  Tc44  1  0.77777778  0.72222222  0.18518519  1.0
  Tc  Tc45  1  0.11111111  0.22222222  0.12962963  1.0
  Tc  Tc46  1  0.11111111  0.55555556  0.12962963  1.0
  Tc  Tc47  1  0.11111111  0.88888889  0.12962963  1.0
  Tc  Tc48  1  0.44444444  0.22222222  0.12962963  1.0
  Tc  Tc49  1  0.44444444  0.55555556  0.12962963  1.0
  Tc  Tc50  1  0.44444444  0.88888889  0.12962963  1.0
  Tc  Tc51  1  0.77777778  0.22222222  0.12962963  1.0
  Tc  Tc52  1  0.77777778  0.55555556  0.12962963  1.0
  Tc  Tc53  1  0.77777778  0.88888889  0.12962963  1.0
  Ni  Ni54  1  0.00000000  0.16666667  0.20370370  1.0
  Ni  Ni55  1  0.00000000  0.50000000  0.20370370  1.0
  Ni  Ni56  1  0.00000000  0.83333333  0.20370370  1.0
  Ni  Ni57  1  0.33333333  0.16666667  0.20370370  1.0
  Ni  Ni58  1  0.33333333  0.50000000  0.20370370  1.0
  Ni  Ni59  1  0.33333333  0.83333333  0.20370370  1.0
  Ni  Ni60  1  0.66666667  0.16666667  0.20370370  1.0
  Ni  Ni61  1  0.66666667  0.50000000  0.20370370  1.0
  Ni  Ni62  1  0.66666667  0.83333333  0.20370370  1.0
  Ni  Ni63  1  0.00000000  0.00000000  0.14814815  1.0
  Ni  Ni64  1  0.00000000  0.33333333  0.14814815  1.0
  Ni  Ni65  1  0.00000000  0.66666667  0.14814815  1.0
  Ni  Ni66  1  0.33333333  0.00000000  0.14814815  1.0
  Ni  Ni67  1  0.33333333  0.33333333  0.14814815  1.0
  Ni  Ni68  1  0.33333333  0.66666667  0.14814815  1.0
  Ni  Ni69  1  0.66666667  0.00000000  0.14814815  1.0
  Ni  Ni70  1  0.66666667  0.33333333  0.14814815  1.0
  Ni  Ni71  1  0.66666667  0.66666667  0.14814815  1.0
  Tc  Tc72  1  0.11111111  0.05555556  0.29629630  1.0
  Tc  Tc73  1  0.11111111  0.38888889  0.29629630  1.0
  Tc  Tc74  1  0.11111111  0.72222222  0.29629630  1.0
  Tc  Tc75  1  0.44444444  0.05555556  0.29629630  1.0
  Tc  Tc76  1  0.44444444  0.38888889  0.29629630  1.0
  Tc  Tc77  1  0.44444444  0.72222222  0.29629630  1.0
  Tc  Tc78  1  0.77777778  0.05555556  0.29629630  1.0
  Tc  Tc79  1  0.77777778  0.38888889  0.29629630  1.0
  Tc  Tc80  1  0.77777778  0.72222222  0.29629630  1.0
  Tc  Tc81  1  0.11111111  0.22222222  0.24074074  1.0
  Tc  Tc82  1  0.11111111  0.55555556  0.24074074  1.0
  Tc  Tc83  1  0.11111111  0.88888889  0.24074074  1.0
  Tc  Tc84  1  0.44444444  0.22222222  0.24074074  1.0
  Tc  Tc85  1  0.44444444  0.55555556  0.24074074  1.0
  Tc  Tc86  1  0.44444444  0.88888889  0.24074074  1.0
  Tc  Tc87  1  0.77777778  0.22222222  0.24074074  1.0
  Tc  Tc88  1  0.77777778  0.55555556  0.24074074  1.0
  Tc  Tc89  1  0.77777778  0.88888889  0.24074074  1.0
  Ni  Ni90  1  0.00000000  0.16666667  0.31481481  1.0
  Ni  Ni91  1  0.00000000  0.50000000  0.31481481  1.0
  Ni  Ni92  1  0.00000000  0.83333333  0.31481481  1.0
  Ni  Ni93  1  0.33333333  0.16666667  0.31481481  1.0
  Ni  Ni94  1  0.33333333  0.50000000  0.31481481  1.0
  Ni  Ni95  1  0.33333333  0.83333333  0.31481481  1.0
  Ni  Ni96  1  0.66666667  0.16666667  0.31481481  1.0
  Ni  Ni97  1  0.66666667  0.50000000  0.31481481  1.0
  Ni  Ni98  1  0.66666667  0.83333333  0.31481481  1.0
  Ni  Ni99  1  0.00000000  0.00000000  0.25925926  1.0
  Ni  Ni100  1  0.00000000  0.33333333  0.25925926  1.0
  Ni  Ni101  1  0.00000000  0.66666667  0.25925926  1.0
  Ni  Ni102  1  0.33333333  0.00000000  0.25925926  1.0
  Ni  Ni103  1  0.33333333  0.33333333  0.25925926  1.0
  Ni  Ni104  1  0.33333333  0.66666667  0.25925926  1.0
  Ni  Ni105  1  0.66666667  0.00000000  0.25925926  1.0
  Ni  Ni106  1  0.66666667  0.33333333  0.25925926  1.0
  Ni  Ni107  1  0.66666667  0.66666667  0.25925926  1.0
  Tc  Tc108  1  0.11111111  0.05555556  0.40740741  1.0
  Tc  Tc109  1  0.11111111  0.38888889  0.40740741  1.0
  Tc  Tc110  1  0.11111111  0.72222222  0.40740741  1.0
  Tc  Tc111  1  0.44444444  0.05555556  0.40740741  1.0
  Tc  Tc112  1  0.44444444  0.38888889  0.40740741  1.0
  Tc  Tc113  1  0.44444444  0.72222222  0.40740741  1.0
  Tc  Tc114  1  0.77777778  0.05555556  0.40740741  1.0
  Tc  Tc115  1  0.77777778  0.38888889  0.40740741  1.0
  Tc  Tc116  1  0.77777778  0.72222222  0.40740741  1.0
  Tc  Tc117  1  0.11111111  0.22222222  0.35185185  1.0
  Tc  Tc118  1  0.11111111  0.55555556  0.35185185  1.0
  Tc  Tc119  1  0.11111111  0.88888889  0.35185185  1.0
  Tc  Tc120  1  0.44444444  0.22222222  0.35185185  1.0
  Tc  Tc121  1  0.44444444  0.55555556  0.35185185  1.0
  Tc  Tc122  1  0.44444444  0.88888889  0.35185185  1.0
  Tc  Tc123  1  0.77777778  0.22222222  0.35185185  1.0
  Tc  Tc124  1  0.77777778  0.55555556  0.35185185  1.0
  Tc  Tc125  1  0.77777778  0.88888889  0.35185185  1.0
  Ni  Ni126  1  0.00000000  0.16666667  0.42592593  1.0
  Ni  Ni127  1  0.00000000  0.50000000  0.42592593  1.0
  Ni  Ni128  1  0.00000000  0.83333333  0.42592593  1.0
  Ni  Ni129  1  0.33333333  0.16666667  0.42592593  1.0
  Ni  Ni130  1  0.33333333  0.50000000  0.42592593  1.0
  Ni  Ni131  1  0.33333333  0.83333333  0.42592593  1.0
  Ni  Ni132  1  0.66666667  0.16666667  0.42592593  1.0
  Ni  Ni133  1  0.66666667  0.50000000  0.42592593  1.0
  Ni  Ni134  1  0.66666667  0.83333333  0.42592593  1.0
  Ni  Ni135  1  0.00000000  0.00000000  0.37037037  1.0
  Ni  Ni136  1  0.00000000  0.33333333  0.37037037  1.0
  Ni  Ni137  1  0.00000000  0.66666667  0.37037037  1.0
  Ni  Ni138  1  0.33333333  0.00000000  0.37037037  1.0
  Ni  Ni139  1  0.33333333  0.33333333  0.37037037  1.0
  Ni  Ni140  1  0.33333333  0.66666667  0.37037037  1.0
  Ni  Ni141  1  0.66666667  0.00000000  0.37037037  1.0
  Ni  Ni142  1  0.66666667  0.33333333  0.37037037  1.0
  Ni  Ni143  1  0.66666667  0.66666667  0.37037037  1.0
