# generated using pymatgen
data_TcNi
_symmetry_space_group_name_H-M   'P 1'
_cell_length_a   13.79143867
_cell_length_b   26.43332000
_cell_length_c   53.08327220
_cell_angle_alpha   107.53145349
_cell_angle_beta   150.00000000
_cell_angle_gamma   74.87817607
_symmetry_Int_Tables_number   1
_chemical_formula_structural   TcNi
_chemical_formula_sum   'Tc144 Ni144'
_cell_volume   9226.42030294
_cell_formula_units_Z   144
loop_
 _symmetry_equiv_pos_site_id
 _symmetry_equiv_pos_as_xyz
  1  'x, y, z'
loop_
 _atom_site_type_symbol
 _atom_site_label
 _atom_site_symmetry_multiplicity
 _atom_site_fract_x
 _atom_site_fract_y
 _atom_site_fract_z
 _atom_site_occupancy
  Tc  Tc0  1  0.11111111  0.00000000  0.04375000  1.0
  Tc  Tc1  1  0.11111111  0.33333333  0.04375000  1.0
  Tc  Tc2  1  0.11111111  0.66666667  0.04375000  1.0
  Tc  Tc3  1  0.44444444  0.00000000  0.04375000  1.0
  Tc  Tc4  1  0.44444444  0.33333333  0.04375000  1.0
  Tc  Tc5  1  0.44444444  0.66666667  0.04375000  1.0
  Tc  Tc6  1  0.77777778  0.00000000  0.04375000  1.0
  Tc  Tc7  1  0.77777778  0.33333333  0.04375000  1.0
  Tc  Tc8  1  0.77777778  0.66666667  0.04375000  1.0
  Tc  Tc9  1  0.11111111  0.16666667  0.01875000  1.0
  Tc  Tc10  1  0.11111111  0.50000000  0.01875000  1.0
  Tc  Tc11  1  0.11111111  0.83333333  0.01875000  1.0
  Tc  Tc12  1  0.44444444  0.16666667  0.01875000  1.0
  Tc  Tc13  1  0.44444444  0.50000000  0.01875000  1.0
  Tc  Tc14  1  0.44444444  0.83333333  0.01875000  1.0
  Tc  Tc15  1  0.77777778  0.16666667  0.01875000  1.0
  Tc  Tc16  1  0.77777778  0.50000000  0.01875000  1.0
  Tc  Tc17  1  0.77777778  0.83333333  0.01875000  1.0
  Ni  Ni18  1  0.00000000  0.08333333  0.00625000  1.0
  Ni  Ni19  1  0.00000000  0.41666667  0.00625000  1.0
  Ni  Ni20  1  0.00000000  0.75000000  0.00625000  1.0
  Ni  Ni21  1  0.33333333  0.08333333  0.00625000  1.0
  Ni  Ni22  1  0.33333333  0.41666667  0.00625000  1.0
  Ni  Ni23  1  0.33333333  0.75000000  0.00625000  1.0
  Ni  Ni24  1  0.66666667  0.08333333  0.00625000  1.0
  Ni  Ni25  1  0.66666667  0.41666667  0.00625000  1.0
  Ni  Ni26  1  0.66666667  0.75000000  0.00625000  1.0
  Ni  Ni27  1  0.00000000  0.25000000  0.03125000  1.0
  Ni  Ni28  1  0.00000000  0.58333333  0.03125000  1.0
  Ni  Ni29  1  0.00000000  0.91666667  0.03125000  1.0
  Ni  Ni30  1  0.33333333  0.25000000  0.03125000  1.0
  Ni  Ni31  1  0.33333333  0.58333333  0.03125000  1.0
  Ni  Ni32  1  0.33333333  0.91666667  0.03125000  1.0
  Ni  Ni33  1  0.66666667  0.25000000  0.03125000  1.0
  Ni  Ni34  1  0.66666667  0.58333333  0.03125000  1.0
  Ni  Ni35  1  0.66666667  0.91666667  0.03125000  1.0
  Tc  Tc36  1  0.11111111  0.00000000  0.09375000  1.0
  Tc  Tc37  1  0.11111111  0.33333333  0.09375000  1.0
  Tc  Tc38  1  0.11111111  0.66666667  0.09375000  1.0
  Tc  Tc39  1  0.44444444  0.00000000  0.09375000  1.0
  Tc  Tc40  1  0.44444444  0.33333333  0.09375000  1.0
  Tc  Tc41  1  0.44444444  0.66666667  0.09375000  1.0
  Tc  Tc42  1  0.77777778  0.00000000  0.09375000  1.0
  Tc  Tc43  1  0.77777778  0.33333333  0.09375000  1.0
  Tc  Tc44  1  0.77777778  0.66666667  0.09375000  1.0
  Tc  Tc45  1  0.11111111  0.16666667  0.06875000  1.0
  Tc  Tc46  1  0.11111111  0.50000000  0.06875000  1.0
  Tc  Tc47  1  0.11111111  0.83333333  0.06875000  1.0
  Tc  Tc48  1  0.44444444  0.16666667  0.06875000  1.0
  Tc  Tc49  1  0.44444444  0.50000000  0.06875000  1.0
  Tc  Tc50  1  0.44444444  0.83333333  0.06875000  1.0
  Tc  Tc51  1  0.77777778  0.16666667  0.06875000  1.0
  Tc  Tc52  1  0.77777778  0.50000000  0.06875000  1.0
  Tc  Tc53  1  0.77777778  0.83333333  0.06875000  1.0
  Ni  Ni54  1  0.00000000  0.08333333  0.05625000  1.0
  Ni  Ni55  1  0.00000000  0.41666667  0.05625000  1.0
  Ni  Ni56  1  0.00000000  0.75000000  0.05625000  1.0
  Ni  Ni57  1  0.33333333  0.08333333  0.05625000  1.0
  Ni  Ni58  1  0.33333333  0.41666667  0.05625000  1.0
  Ni  Ni59  1  0.33333333  0.75000000  0.05625000  1.0
  Ni  Ni60  1  0.66666667  0.08333333  0.05625000  1.0
  Ni  Ni61  1  0.66666667  0.41666667  0.05625000  1.0
  Ni  Ni62  1  0.66666667  0.75000000  0.05625000  1.0
  Ni  Ni63  1  0.00000000  0.25000000  0.08125000  1.0
  Ni  Ni64  1  0.00000000  0.58333333  0.08125000  1.0
  Ni  Ni65  1  0.00000000  0.91666667  0.08125000  1.0
  Ni  Ni66  1  0.33333333  0.25000000  0.08125000  1.0
  Ni  Ni67  1  0.33333333  0.58333333  0.08125000  1.0
  Ni  Ni68  1  0.33333333  0.91666667  0.08125000  1.0
  Ni  Ni69  1  0.66666667  0.25000000  0.08125000  1.0
  Ni  Ni70  1  0.66666667  0.58333333  0.08125000  1.0
  Ni  Ni71  1  0.66666667  0.91666667  0.08125000  1.0
  Tc  Tc72  1  0.11111111  0.00000000  0.14375000  1.0
  Tc  Tc73  1  0.11111111  0.33333333  0.14375000  1.0
  Tc  Tc74  1  0.11111111  0.66666667  0.14375000  1.0
  Tc  Tc75  1  0.44444444  0.00000000  0.14375000  1.0
  Tc  Tc76  1  0.44444444  0.33333333  0.14375000  1.0
  Tc  Tc77  1  0.44444444  0.66666667  0.14375000  1.0
  Tc  Tc78  1  0.77777778  0.00000000  0.14375000  1.0
  Tc  Tc79  1  0.77777778  0.33333333  0.14375000  1.0
  Tc  Tc80  1  0.77777778  0.66666667  0.14375000  1.0
  Tc  Tc81  1  0.11111111  0.16666667  0.11875000  1.0
  Tc  Tc82  1  0.11111111  0.50000000  0.11875000  1.0
  Tc  Tc83  1  0.11111111  0.83333333  0.11875000  1.0
  Tc  Tc84  1  0.44444444  0.16666667  0.11875000  1.0
  Tc  Tc85  1  0.44444444  0.50000000  0.11875000  1.0
  Tc  Tc86  1  0.44444444  0.83333333  0.11875000  1.0
  Tc  Tc87  1  0.77777778  0.16666667  0.11875000  1.0
  Tc  Tc88  1  0.77777778  0.50000000  0.11875000  1.0
  Tc  Tc89  1  0.77777778  0.83333333  0.11875000  1.0
  Ni  Ni90  1  0.00000000  0.08333333  0.10625000  1.0
  Ni  Ni91  1  0.00000000  0.41666667  0.10625000  1.0
  Ni  Ni92  1  0.00000000  0.75000000  0.10625000  1.0
  Ni  Ni93  1  0.33333333  0.08333333  0.10625000  1.0
  Ni  Ni94  1  0.33333333  0.41666667  0.10625000  1.0
  Ni  Ni95  1  0.33333333  0.75000000  0.10625000  1.0
  Ni  Ni96  1  0.66666667  0.08333333  0.10625000  1.0
  Ni  Ni97  1  0.66666667  0.41666667  0.10625000  1.0
  Ni  Ni98  1  0.66666667  0.75000000  0.10625000  1.0
  Ni  Ni99  1  0.00000000  0.25000000  0.13125000  1.0
  Ni  Ni100  1  0.00000000  0.58333333  0.13125000  1.0
  Ni  Ni101  1  0.00000000  0.91666667  0.13125000  1.0
  Ni  Ni102  1  0.33333333  0.25000000  0.13125000  1.0
  Ni  Ni103  1  0.33333333  0.58333333  0.13125000  1.0
  Ni  Ni104  1  0.33333333  0.91666667  0.13125000  1.0
  Ni  Ni105  1  0.66666667  0.25000000  0.13125000  1.0
  Ni  Ni106  1  0.66666667  0.58333333  0.13125000  1.0
  Ni  Ni107  1  0.66666667  0.91666667  0.13125000  1.0
  Tc  Tc108  1  0.11111111  0.00000000  0.19375000  1.0
  Tc  Tc109  1  0.11111111  0.33333333  0.19375000  1.0
  Tc  Tc110  1  0.11111111  0.66666667  0.19375000  1.0
  Tc  Tc111  1  0.44444444  0.00000000  0.19375000  1.0
  Tc  Tc112  1  0.44444444  0.33333333  0.19375000  1.0
  Tc  Tc113  1  0.44444444  0.66666667  0.19375000  1.0
  Tc  Tc114  1  0.77777778  0.00000000  0.19375000  1.0
  Tc  Tc115  1  0.77777778  0.33333333  0.19375000  1.0
  Tc  Tc116  1  0.77777778  0.66666667  0.19375000  1.0
  Tc  Tc117  1  0.11111111  0.16666667  0.16875000  1.0
  Tc  Tc118  1  0.11111111  0.50000000  0.16875000  1.0
  Tc  Tc119  1  0.11111111  0.83333333  0.16875000  1.0
  Tc  Tc120  1  0.44444444  0.16666667  0.16875000  1.0
  Tc  Tc121  1  0.44444444  0.50000000  0.16875000  1.0
  Tc  Tc122  1  0.44444444  0.83333333  0.16875000  1.0
  Tc  Tc123  1  0.77777778  0.16666667  0.16875000  1.0
  Tc  Tc124  1  0.77777778  0.50000000  0.16875000  1.0
  Tc  Tc125  1  0.77777778  0.83333333  0.16875000  1.0
  Ni  Ni126  1  0.00000000  0.08333333  0.15625000  1.0
  Ni  Ni127  1  0.00000000  0.41666667  0.15625000  1.0
  Ni  Ni128  1  0.00000000  0.75000000  0.15625000  1.0
  Ni  Ni129  1  0.33333333  0.08333333  0.15625000  1.0
  Ni  Ni130  1  0.33333333  0.41666667  0.15625000  1.0
  Ni  Ni131  1  0.33333333  0.75000000  0.15625000  1.0
  Ni  Ni132  1  0.66666667  0.08333333  0.15625000  1.0
  Ni  Ni133  1  0.66666667  0.41666667  0.15625000  1.0
  Ni  Ni134  1  0.66666667  0.75000000  0.15625000  1.0
  Ni  Ni135  1  0.00000000  0.25000000  0.18125000  1.0
  Ni  Ni136  1  0.00000000  0.58333333  0.18125000  1.0
  Ni  Ni137  1  0.00000000  0.91666667  0.18125000  1.0
  Ni  Ni138  1  0.33333333  0.25000000  0.18125000  1.0
  Ni  Ni139  1  0.33333333  0.58333333  0.18125000  1.0
  Ni  Ni140  1  0.33333333  0.91666667  0.18125000  1.0
  Ni  Ni141  1  0.66666667  0.25000000  0.18125000  1.0
  Ni  Ni142  1  0.66666667  0.58333333  0.18125000  1.0
  Ni  Ni143  1  0.66666667  0.91666667  0.18125000  1.0
  Tc  Tc144  1  0.11111111  0.00000000  0.24375000  1.0
  Tc  Tc145  1  0.11111111  0.33333333  0.24375000  1.0
  Tc  Tc146  1  0.11111111  0.66666667  0.24375000  1.0
  Tc  Tc147  1  0.44444444  0.00000000  0.24375000  1.0
  Tc  Tc148  1  0.44444444  0.33333333  0.24375000  1.0
  Tc  Tc149  1  0.44444444  0.66666667  0.24375000  1.0
  Tc  Tc150  1  0.77777778  0.00000000  0.24375000  1.0
  Tc  Tc151  1  0.77777778  0.33333333  0.24375000  1.0
  Tc  Tc152  1  0.77777778  0.66666667  0.24375000  1.0
  Tc  Tc153  1  0.11111111  0.16666667  0.21875000  1.0
  Tc  Tc154  1  0.11111111  0.50000000  0.21875000  1.0
  Tc  Tc155  1  0.11111111  0.83333333  0.21875000  1.0
  Tc  Tc156  1  0.44444444  0.16666667  0.21875000  1.0
  Tc  Tc157  1  0.44444444  0.50000000  0.21875000  1.0
  Tc  Tc158  1  0.44444444  0.83333333  0.21875000  1.0
  Tc  Tc159  1  0.77777778  0.16666667  0.21875000  1.0
  Tc  Tc160  1  0.77777778  0.50000000  0.21875000  1.0
  Tc  Tc161  1  0.77777778  0.83333333  0.21875000  1.0
  Ni  Ni162  1  0.00000000  0.08333333  0.20625000  1.0
  Ni  Ni163  1  0.00000000  0.41666667  0.20625000  1.0
  Ni  Ni164  1  0.00000000  0.75000000  0.20625000  1.0
  Ni  Ni165  1  0.33333333  0.08333333  0.20625000  1.0
  Ni  Ni166  1  0.33333333  0.41666667  0.20625000  1.0
  Ni  Ni167  1  0.33333333  0.75000000  0.20625000  1.0
  Ni  Ni168  1  0.66666667  0.08333333  0.20625000  1.0
  Ni  Ni169  1  0.66666667  0.41666667  0.20625000  1.0
  Ni  Ni170  1  0.66666667  0.75000000  0.20625000  1.0
  Ni  Ni171  1  0.00000000  0.25000000  0.23125000  1.0
  Ni  Ni172  1  0.00000000  0.58333333  0.23125000  1.0
  Ni  Ni173  1  0.00000000  0.91666667  0.23125000  1.0
  Ni  Ni174  1  0.33333333  0.25000000  0.23125000  1.0
  Ni  Ni175  1  0.33333333  0.58333333  0.23125000  1.0
  Ni  Ni176  1  0.33333333  0.91666667  0.23125000  1.0
  Ni  Ni177  1  0.66666667  0.25000000  0.23125000  1.0
  Ni  Ni178  1  0.66666667  0.58333333  0.23125000  1.0
  Ni  Ni179  1  0.66666667  0.91666667  0.23125000  1.0
  Tc  Tc180  1  0.11111111  0.00000000  0.29375000  1.0
  Tc  Tc181  1  0.11111111  0.33333333  0.29375000  1.0
  Tc  Tc182  1  0.11111111  0.66666667  0.29375000  1.0
  Tc  Tc183  1  0.44444444  0.00000000  0.29375000  1.0
  Tc  Tc184  1  0.44444444  0.33333333  0.29375000  1.0
  Tc  Tc185  1  0.44444444  0.66666667  0.29375000  1.0
  Tc  Tc186  1  0.77777778  0.00000000  0.29375000  1.0
  Tc  Tc187  1  0.77777778  0.33333333  0.29375000  1.0
  Tc  Tc188  1  0.77777778  0.66666667  0.29375000  1.0
  Tc  Tc189  1  0.11111111  0.16666667  0.26875000  1.0
  Tc  Tc190  1  0.11111111  0.50000000  0.26875000  1.0
  Tc  Tc191  1  0.11111111  0.83333333  0.26875000  1.0
  Tc  Tc192  1  0.44444444  0.16666667  0.26875000  1.0
  Tc  Tc193  1  0.44444444  0.50000000  0.26875000  1.0
  Tc  Tc194  1  0.44444444  0.83333333  0.26875000  1.0
  Tc  Tc195  1  0.77777778  0.16666667  0.26875000  1.0
  Tc  Tc196  1  0.77777778  0.50000000  0.26875000  1.0
  Tc  Tc197  1  0.77777778  0.83333333  0.26875000  1.0
  Ni  Ni198  1  0.00000000  0.08333333  0.25625000  1.0
  Ni  Ni199  1  0.00000000  0.41666667  0.25625000  1.0
  Ni  Ni200  1  0.00000000  0.75000000  0.25625000  1.0
  Ni  Ni201  1  0.33333333  0.08333333  0.25625000  1.0
  Ni  Ni202  1  0.33333333  0.41666667  0.25625000  1.0
  Ni  Ni203  1  0.33333333  0.75000000  0.25625000  1.0
  Ni  Ni204  1  0.66666667  0.08333333  0.25625000  1.0
  Ni  Ni205  1  0.66666667  0.41666667  0.25625000  1.0
  Ni  Ni206  1  0.66666667  0.75000000  0.25625000  1.0
  Ni  Ni207  1  0.00000000  0.25000000  0.28125000  1.0
  Ni  Ni208  1  0.00000000  0.58333333  0.28125000  1.0
  Ni  Ni209  1  0.00000000  0.91666667  0.28125000  1.0
  Ni  Ni210  1  0.33333333  0.25000000  0.28125000  1.0
  Ni  Ni211  1  0.33333333  0.58333333  0.28125000  1.0
  Ni  Ni212  1  0.33333333  0.91666667  0.28125000  1.0
  Ni  Ni213  1  0.66666667  0.25000000  0.28125000  1.0
  Ni  Ni214  1  0.66666667  0.58333333  0.28125000  1.0
  Ni  Ni215  1  0.66666667  0.91666667  0.28125000  1.0
  Tc  Tc216  1  0.11111111  0.00000000  0.34375000  1.0
  Tc  Tc217  1  0.11111111  0.33333333  0.34375000  1.0
  Tc  Tc218  1  0.11111111  0.66666667  0.34375000  1.0
  Tc  Tc219  1  0.44444444  0.00000000  0.34375000  1.0
  Tc  Tc220  1  0.44444444  0.33333333  0.34375000  1.0
  Tc  Tc221  1  0.44444444  0.66666667  0.34375000  1.0
  Tc  Tc222  1  0.77777778  0.00000000  0.34375000  1.0
  Tc  Tc223  1  0.77777778  0.33333333  0.34375000  1.0
  Tc  Tc224  1  0.77777778  0.66666667  0.34375000  1.0
  Tc  Tc225  1  0.11111111  0.16666667  0.31875000  1.0
  Tc  Tc226  1  0.11111111  0.50000000  0.31875000  1.0
  Tc  Tc227  1  0.11111111  0.83333333  0.31875000  1.0
  Tc  Tc228  1  0.44444444  0.16666667  0.31875000  1.0
  Tc  Tc229  1  0.44444444  0.50000000  0.31875000  1.0
  Tc  Tc230  1  0.44444444  0.83333333  0.31875000  1.0
  Tc  Tc231  1  0.77777778  0.16666667  0.31875000  1.0
  Tc  Tc232  1  0.77777778  0.50000000  0.31875000  1.0
  Tc  Tc233  1  0.77777778  0.83333333  0.31875000  1.0
  Ni  Ni234  1  0.00000000  0.08333333  0.30625000  1.0
  Ni  Ni235  1  0.00000000  0.41666667  0.30625000  1.0
  Ni  Ni236  1  0.00000000  0.75000000  0.30625000  1.0
  Ni  Ni237  1  0.33333333  0.08333333  0.30625000  1.0
  Ni  Ni238  1  0.33333333  0.41666667  0.30625000  1.0
  Ni  Ni239  1  0.33333333  0.75000000  0.30625000  1.0
  Ni  Ni240  1  0.66666667  0.08333333  0.30625000  1.0
  Ni  Ni241  1  0.66666667  0.41666667  0.30625000  1.0
  Ni  Ni242  1  0.66666667  0.75000000  0.30625000  1.0
  Ni  Ni243  1  0.00000000  0.25000000  0.33125000  1.0
  Ni  Ni244  1  0.00000000  0.58333333  0.33125000  1.0
  Ni  Ni245  1  0.00000000  0.91666667  0.33125000  1.0
  Ni  Ni246  1  0.33333333  0.25000000  0.33125000  1.0
  Ni  Ni247  1  0.33333333  0.58333333  0.33125000  1.0
  Ni  Ni248  1  0.33333333  0.91666667  0.33125000  1.0
  Ni  Ni249  1  0.66666667  0.25000000  0.33125000  1.0
  Ni  Ni250  1  0.66666667  0.58333333  0.33125000  1.0
  Ni  Ni251  1  0.66666667  0.91666667  0.33125000  1.0
  Tc  Tc252  1  0.11111111  0.00000000  0.39375000  1.0
  Tc  Tc253  1  0.11111111  0.33333333  0.39375000  1.0
  Tc  Tc254  1  0.11111111  0.66666667  0.39375000  1.0
  Tc  Tc255  1  0.44444444  0.00000000  0.39375000  1.0
  Tc  Tc256  1  0.44444444  0.33333333  0.39375000  1.0
  Tc  Tc257  1  0.44444444  0.66666667  0.39375000  1.0
  Tc  Tc258  1  0.77777778  0.00000000  0.39375000  1.0
  Tc  Tc259  1  0.77777778  0.33333333  0.39375000  1.0
  Tc  Tc260  1  0.77777778  0.66666667  0.39375000  1.0
  Tc  Tc261  1  0.11111111  0.16666667  0.36875000  1.0
  Tc  Tc262  1  0.11111111  0.50000000  0.36875000  1.0
  Tc  Tc263  1  0.11111111  0.83333333  0.36875000  1.0
  Tc  Tc264  1  0.44444444  0.16666667  0.36875000  1.0
  Tc  Tc265  1  0.44444444  0.50000000  0.36875000  1.0
  Tc  Tc266  1  0.44444444  0.83333333  0.36875000  1.0
  Tc  Tc267  1  0.77777778  0.16666667  0.36875000  1.0
  Tc  Tc268  1  0.77777778  0.50000000  0.36875000  1.0
  Tc  Tc269  1  0.77777778  0.83333333  0.36875000  1.0
  Ni  Ni270  1  0.00000000  0.08333333  0.35625000  1.0
  Ni  Ni271  1  0.00000000  0.41666667  0.35625000  1.0
  Ni  Ni272  1  0.00000000  0.75000000  0.35625000  1.0
  Ni  Ni273  1  0.33333333  0.08333333  0.35625000  1.0
  Ni  Ni274  1  0.33333333  0.41666667  0.35625000  1.0
  Ni  Ni275  1  0.33333333  0.75000000  0.35625000  1.0
  Ni  Ni276  1  0.66666667  0.08333333  0.35625000  1.0
  Ni  Ni277  1  0.66666667  0.41666667  0.35625000  1.0
  Ni  Ni278  1  0.66666667  0.75000000  0.35625000  1.0
  Ni  Ni279  1  0.00000000  0.25000000  0.38125000  1.0
  Ni  Ni280  1  0.00000000  0.58333333  0.38125000  1.0
  Ni  Ni281  1  0.00000000  0.91666667  0.38125000  1.0
  Ni  Ni282  1  0.33333333  0.25000000  0.38125000  1.0
  Ni  Ni283  1  0.33333333  0.58333333  0.38125000  1.0
  Ni  Ni284  1  0.33333333  0.91666667  0.38125000  1.0
  Ni  Ni285  1  0.66666667  0.25000000  0.38125000  1.0
  Ni  Ni286  1  0.66666667  0.58333333  0.38125000  1.0
  Ni  Ni287  1  0.66666667  0.91666667  0.38125000  1.0
