# generated using pymatgen
data_TcNi
_symmetry_space_group_name_H-M   'P 1'
_cell_length_a   7.96249083
_cell_length_b   7.96249083
_cell_length_c   29.40646100
_cell_angle_alpha   90.00000000
_cell_angle_beta   90.00000000
_cell_angle_gamma   120.00000000
_symmetry_Int_Tables_number   1
_chemical_formula_structural   TcNi
_chemical_formula_sum   'Tc27 Ni27'
_cell_volume   1614.62355302
_cell_formula_units_Z   27
loop_
 _symmetry_equiv_pos_site_id
 _symmetry_equiv_pos_as_xyz
  1  'x, y, z'
loop_
 _atom_site_type_symbol
 _atom_site_label
 _atom_site_symmetry_multiplicity
 _atom_site_fract_x
 _atom_site_fract_y
 _atom_site_fract_z
 _atom_site_occupancy
  Tc  Tc0  1  0.22222222  0.11111111  0.10714286  1.0
  Tc  Tc1  1  0.22222222  0.44444444  0.10714286  1.0
  Tc  Tc2  1  0.22222222  0.77777778  0.10714286  1.0
  Tc  Tc3  1  0.55555556  0.11111111  0.10714286  1.0
  Tc  Tc4  1  0.55555556  0.44444444  0.10714286  1.0
  Tc  Tc5  1  0.55555556  0.77777778  0.10714286  1.0
  Tc  Tc6  1  0.88888889  0.11111111  0.10714286  1.0
  Tc  Tc7  1  0.88888889  0.44444444  0.10714286  1.0
  Tc  Tc8  1  0.88888889  0.77777778  0.10714286  1.0
  Ni  Ni9  1  0.00000000  0.00000000  0.03571429  1.0
  Ni  Ni10  1  0.00000000  0.33333333  0.03571429  1.0
  Ni  Ni11  1  0.00000000  0.66666667  0.03571429  1.0
  Ni  Ni12  1  0.33333333  0.00000000  0.03571429  1.0
  Ni  Ni13  1  0.33333333  0.33333333  0.03571429  1.0
  Ni  Ni14  1  0.33333333  0.66666667  0.03571429  1.0
  Ni  Ni15  1  0.66666667  0.00000000  0.03571429  1.0
  Ni  Ni16  1  0.66666667  0.33333333  0.03571429  1.0
  Ni  Ni17  1  0.66666667  0.66666667  0.03571429  1.0
  Tc  Tc18  1  0.22222222  0.11111111  0.25000000  1.0
  Tc  Tc19  1  0.22222222  0.44444444  0.25000000  1.0
  Tc  Tc20  1  0.22222222  0.77777778  0.25000000  1.0
  Tc  Tc21  1  0.55555556  0.11111111  0.25000000  1.0
  Tc  Tc22  1  0.55555556  0.44444444  0.25000000  1.0
  Tc  Tc23  1  0.55555556  0.77777778  0.25000000  1.0
  Tc  Tc24  1  0.88888889  0.11111111  0.25000000  1.0
  Tc  Tc25  1  0.88888889  0.44444444  0.25000000  1.0
  Tc  Tc26  1  0.88888889  0.77777778  0.25000000  1.0
  Ni  Ni27  1  0.00000000  0.00000000  0.17857143  1.0
  Ni  Ni28  1  0.00000000  0.33333333  0.17857143  1.0
  Ni  Ni29  1  0.00000000  0.66666667  0.17857143  1.0
  Ni  Ni30  1  0.33333333  0.00000000  0.17857143  1.0
  Ni  Ni31  1  0.33333333  0.33333333  0.17857143  1.0
  Ni  Ni32  1  0.33333333  0.66666667  0.17857143  1.0
  Ni  Ni33  1  0.66666667  0.00000000  0.17857143  1.0
  Ni  Ni34  1  0.66666667  0.33333333  0.17857143  1.0
  Ni  Ni35  1  0.66666667  0.66666667  0.17857143  1.0
  Tc  Tc36  1  0.22222222  0.11111111  0.39285714  1.0
  Tc  Tc37  1  0.22222222  0.44444444  0.39285714  1.0
  Tc  Tc38  1  0.22222222  0.77777778  0.39285714  1.0
  Tc  Tc39  1  0.55555556  0.11111111  0.39285714  1.0
  Tc  Tc40  1  0.55555556  0.44444444  0.39285714  1.0
  Tc  Tc41  1  0.55555556  0.77777778  0.39285714  1.0
  Tc  Tc42  1  0.88888889  0.11111111  0.39285714  1.0
  Tc  Tc43  1  0.88888889  0.44444444  0.39285714  1.0
  Tc  Tc44  1  0.88888889  0.77777778  0.39285714  1.0
  Ni  Ni45  1  0.00000000  0.00000000  0.32142857  1.0
  Ni  Ni46  1  0.00000000  0.33333333  0.32142857  1.0
  Ni  Ni47  1  0.00000000  0.66666667  0.32142857  1.0
  Ni  Ni48  1  0.33333333  0.00000000  0.32142857  1.0
  Ni  Ni49  1  0.33333333  0.33333333  0.32142857  1.0
  Ni  Ni50  1  0.33333333  0.66666667  0.32142857  1.0
  Ni  Ni51  1  0.66666667  0.00000000  0.32142857  1.0
  Ni  Ni52  1  0.66666667  0.33333333  0.32142857  1.0
  Ni  Ni53  1  0.66666667  0.66666667  0.32142857  1.0
