# generated using pymatgen
data_TcNi
_symmetry_space_group_name_H-M   'P 1'
_cell_length_a   12.60276900
_cell_length_b   21.06677055
_cell_length_c   39.81245415
_cell_angle_alpha   139.10660535
_cell_angle_beta   90.00000000
_cell_angle_gamma   90.00000000
_symmetry_Int_Tables_number   1
_chemical_formula_structural   TcNi
_chemical_formula_sum   'Tc108 Ni108'
_cell_volume   6919.81522721
_cell_formula_units_Z   108
loop_
 _symmetry_equiv_pos_site_id
 _symmetry_equiv_pos_as_xyz
  1  'x, y, z'
loop_
 _atom_site_type_symbol
 _atom_site_label
 _atom_site_symmetry_multiplicity
 _atom_site_fract_x
 _atom_site_fract_y
 _atom_site_fract_z
 _atom_site_occupancy
  Tc  Tc0  1  0.00000000  0.11111111  0.03888889  1.0
  Tc  Tc1  1  0.00000000  0.44444444  0.03888889  1.0
  Tc  Tc2  1  0.00000000  0.77777778  0.03888889  1.0
  Tc  Tc3  1  0.33333333  0.11111111  0.03888889  1.0
  Tc  Tc4  1  0.33333333  0.44444444  0.03888889  1.0
  Tc  Tc5  1  0.33333333  0.77777778  0.03888889  1.0
  Tc  Tc6  1  0.66666667  0.11111111  0.03888889  1.0
  Tc  Tc7  1  0.66666667  0.44444444  0.03888889  1.0
  Tc  Tc8  1  0.66666667  0.77777778  0.03888889  1.0
  Tc  Tc9  1  0.00000000  0.27777778  0.00555556  1.0
  Tc  Tc10  1  0.00000000  0.61111111  0.00555556  1.0
  Tc  Tc11  1  0.00000000  0.94444444  0.00555556  1.0
  Tc  Tc12  1  0.33333333  0.27777778  0.00555556  1.0
  Tc  Tc13  1  0.33333333  0.61111111  0.00555556  1.0
  Tc  Tc14  1  0.33333333  0.94444444  0.00555556  1.0
  Tc  Tc15  1  0.66666667  0.27777778  0.00555556  1.0
  Tc  Tc16  1  0.66666667  0.61111111  0.00555556  1.0
  Tc  Tc17  1  0.66666667  0.94444444  0.00555556  1.0
  Ni  Ni18  1  0.16666667  0.16666667  0.02777778  1.0
  Ni  Ni19  1  0.16666667  0.50000000  0.02777778  1.0
  Ni  Ni20  1  0.16666667  0.83333333  0.02777778  1.0
  Ni  Ni21  1  0.50000000  0.16666667  0.02777778  1.0
  Ni  Ni22  1  0.50000000  0.50000000  0.02777778  1.0
  Ni  Ni23  1  0.50000000  0.83333333  0.02777778  1.0
  Ni  Ni24  1  0.83333333  0.16666667  0.02777778  1.0
  Ni  Ni25  1  0.83333333  0.50000000  0.02777778  1.0
  Ni  Ni26  1  0.83333333  0.83333333  0.02777778  1.0
  Ni  Ni27  1  0.16666667  0.00000000  0.06111111  1.0
  Ni  Ni28  1  0.16666667  0.33333333  0.06111111  1.0
  Ni  Ni29  1  0.16666667  0.66666667  0.06111111  1.0
  Ni  Ni30  1  0.50000000  0.00000000  0.06111111  1.0
  Ni  Ni31  1  0.50000000  0.33333333  0.06111111  1.0
  Ni  Ni32  1  0.50000000  0.66666667  0.06111111  1.0
  Ni  Ni33  1  0.83333333  0.00000000  0.06111111  1.0
  Ni  Ni34  1  0.83333333  0.33333333  0.06111111  1.0
  Ni  Ni35  1  0.83333333  0.66666667  0.06111111  1.0
  Tc  Tc36  1  0.00000000  0.11111111  0.10555556  1.0
  Tc  Tc37  1  0.00000000  0.44444444  0.10555556  1.0
  Tc  Tc38  1  0.00000000  0.77777778  0.10555556  1.0
  Tc  Tc39  1  0.33333333  0.11111111  0.10555556  1.0
  Tc  Tc40  1  0.33333333  0.44444444  0.10555556  1.0
  Tc  Tc41  1  0.33333333  0.77777778  0.10555556  1.0
  Tc  Tc42  1  0.66666667  0.11111111  0.10555556  1.0
  Tc  Tc43  1  0.66666667  0.44444444  0.10555556  1.0
  Tc  Tc44  1  0.66666667  0.77777778  0.10555556  1.0
  Tc  Tc45  1  0.00000000  0.27777778  0.07222222  1.0
  Tc  Tc46  1  0.00000000  0.61111111  0.07222222  1.0
  Tc  Tc47  1  0.00000000  0.94444444  0.07222222  1.0
  Tc  Tc48  1  0.33333333  0.27777778  0.07222222  1.0
  Tc  Tc49  1  0.33333333  0.61111111  0.07222222  1.0
  Tc  Tc50  1  0.33333333  0.94444444  0.07222222  1.0
  Tc  Tc51  1  0.66666667  0.27777778  0.07222222  1.0
  Tc  Tc52  1  0.66666667  0.61111111  0.07222222  1.0
  Tc  Tc53  1  0.66666667  0.94444444  0.07222222  1.0
  Ni  Ni54  1  0.16666667  0.16666667  0.09444444  1.0
  Ni  Ni55  1  0.16666667  0.50000000  0.09444444  1.0
  Ni  Ni56  1  0.16666667  0.83333333  0.09444444  1.0
  Ni  Ni57  1  0.50000000  0.16666667  0.09444444  1.0
  Ni  Ni58  1  0.50000000  0.50000000  0.09444444  1.0
  Ni  Ni59  1  0.50000000  0.83333333  0.09444444  1.0
  Ni  Ni60  1  0.83333333  0.16666667  0.09444444  1.0
  Ni  Ni61  1  0.83333333  0.50000000  0.09444444  1.0
  Ni  Ni62  1  0.83333333  0.83333333  0.09444444  1.0
  Ni  Ni63  1  0.16666667  0.00000000  0.12777778  1.0
  Ni  Ni64  1  0.16666667  0.33333333  0.12777778  1.0
  Ni  Ni65  1  0.16666667  0.66666667  0.12777778  1.0
  Ni  Ni66  1  0.50000000  0.00000000  0.12777778  1.0
  Ni  Ni67  1  0.50000000  0.33333333  0.12777778  1.0
  Ni  Ni68  1  0.50000000  0.66666667  0.12777778  1.0
  Ni  Ni69  1  0.83333333  0.00000000  0.12777778  1.0
  Ni  Ni70  1  0.83333333  0.33333333  0.12777778  1.0
  Ni  Ni71  1  0.83333333  0.66666667  0.12777778  1.0
  Tc  Tc72  1  0.00000000  0.11111111  0.17222222  1.0
  Tc  Tc73  1  0.00000000  0.44444444  0.17222222  1.0
  Tc  Tc74  1  0.00000000  0.77777778  0.17222222  1.0
  Tc  Tc75  1  0.33333333  0.11111111  0.17222222  1.0
  Tc  Tc76  1  0.33333333  0.44444444  0.17222222  1.0
  Tc  Tc77  1  0.33333333  0.77777778  0.17222222  1.0
  Tc  Tc78  1  0.66666667  0.11111111  0.17222222  1.0
  Tc  Tc79  1  0.66666667  0.44444444  0.17222222  1.0
  Tc  Tc80  1  0.66666667  0.77777778  0.17222222  1.0
  Tc  Tc81  1  0.00000000  0.27777778  0.13888889  1.0
  Tc  Tc82  1  0.00000000  0.61111111  0.13888889  1.0
  Tc  Tc83  1  0.00000000  0.94444444  0.13888889  1.0
  Tc  Tc84  1  0.33333333  0.27777778  0.13888889  1.0
  Tc  Tc85  1  0.33333333  0.61111111  0.13888889  1.0
  Tc  Tc86  1  0.33333333  0.94444444  0.13888889  1.0
  Tc  Tc87  1  0.66666667  0.27777778  0.13888889  1.0
  Tc  Tc88  1  0.66666667  0.61111111  0.13888889  1.0
  Tc  Tc89  1  0.66666667  0.94444444  0.13888889  1.0
  Ni  Ni90  1  0.16666667  0.16666667  0.16111111  1.0
  Ni  Ni91  1  0.16666667  0.50000000  0.16111111  1.0
  Ni  Ni92  1  0.16666667  0.83333333  0.16111111  1.0
  Ni  Ni93  1  0.50000000  0.16666667  0.16111111  1.0
  Ni  Ni94  1  0.50000000  0.50000000  0.16111111  1.0
  Ni  Ni95  1  0.50000000  0.83333333  0.16111111  1.0
  Ni  Ni96  1  0.83333333  0.16666667  0.16111111  1.0
  Ni  Ni97  1  0.83333333  0.50000000  0.16111111  1.0
  Ni  Ni98  1  0.83333333  0.83333333  0.16111111  1.0
  Ni  Ni99  1  0.16666667  0.00000000  0.19444444  1.0
  Ni  Ni100  1  0.16666667  0.33333333  0.19444444  1.0
  Ni  Ni101  1  0.16666667  0.66666667  0.19444444  1.0
  Ni  Ni102  1  0.50000000  0.00000000  0.19444444  1.0
  Ni  Ni103  1  0.50000000  0.33333333  0.19444444  1.0
  Ni  Ni104  1  0.50000000  0.66666667  0.19444444  1.0
  Ni  Ni105  1  0.83333333  0.00000000  0.19444444  1.0
  Ni  Ni106  1  0.83333333  0.33333333  0.19444444  1.0
  Ni  Ni107  1  0.83333333  0.66666667  0.19444444  1.0
  Tc  Tc108  1  0.00000000  0.11111111  0.23888889  1.0
  Tc  Tc109  1  0.00000000  0.44444444  0.23888889  1.0
  Tc  Tc110  1  0.00000000  0.77777778  0.23888889  1.0
  Tc  Tc111  1  0.33333333  0.11111111  0.23888889  1.0
  Tc  Tc112  1  0.33333333  0.44444444  0.23888889  1.0
  Tc  Tc113  1  0.33333333  0.77777778  0.23888889  1.0
  Tc  Tc114  1  0.66666667  0.11111111  0.23888889  1.0
  Tc  Tc115  1  0.66666667  0.44444444  0.23888889  1.0
  Tc  Tc116  1  0.66666667  0.77777778  0.23888889  1.0
  Tc  Tc117  1  0.00000000  0.27777778  0.20555556  1.0
  Tc  Tc118  1  0.00000000  0.61111111  0.20555556  1.0
  Tc  Tc119  1  0.00000000  0.94444444  0.20555556  1.0
  Tc  Tc120  1  0.33333333  0.27777778  0.20555556  1.0
  Tc  Tc121  1  0.33333333  0.61111111  0.20555556  1.0
  Tc  Tc122  1  0.33333333  0.94444444  0.20555556  1.0
  Tc  Tc123  1  0.66666667  0.27777778  0.20555556  1.0
  Tc  Tc124  1  0.66666667  0.61111111  0.20555556  1.0
  Tc  Tc125  1  0.66666667  0.94444444  0.20555556  1.0
  Ni  Ni126  1  0.16666667  0.16666667  0.22777778  1.0
  Ni  Ni127  1  0.16666667  0.50000000  0.22777778  1.0
  Ni  Ni128  1  0.16666667  0.83333333  0.22777778  1.0
  Ni  Ni129  1  0.50000000  0.16666667  0.22777778  1.0
  Ni  Ni130  1  0.50000000  0.50000000  0.22777778  1.0
  Ni  Ni131  1  0.50000000  0.83333333  0.22777778  1.0
  Ni  Ni132  1  0.83333333  0.16666667  0.22777778  1.0
  Ni  Ni133  1  0.83333333  0.50000000  0.22777778  1.0
  Ni  Ni134  1  0.83333333  0.83333333  0.22777778  1.0
  Ni  Ni135  1  0.16666667  0.00000000  0.26111111  1.0
  Ni  Ni136  1  0.16666667  0.33333333  0.26111111  1.0
  Ni  Ni137  1  0.16666667  0.66666667  0.26111111  1.0
  Ni  Ni138  1  0.50000000  0.00000000  0.26111111  1.0
  Ni  Ni139  1  0.50000000  0.33333333  0.26111111  1.0
  Ni  Ni140  1  0.50000000  0.66666667  0.26111111  1.0
  Ni  Ni141  1  0.83333333  0.00000000  0.26111111  1.0
  Ni  Ni142  1  0.83333333  0.33333333  0.26111111  1.0
  Ni  Ni143  1  0.83333333  0.66666667  0.26111111  1.0
  Tc  Tc144  1  0.00000000  0.11111111  0.30555556  1.0
  Tc  Tc145  1  0.00000000  0.44444444  0.30555556  1.0
  Tc  Tc146  1  0.00000000  0.77777778  0.30555556  1.0
  Tc  Tc147  1  0.33333333  0.11111111  0.30555556  1.0
  Tc  Tc148  1  0.33333333  0.44444444  0.30555556  1.0
  Tc  Tc149  1  0.33333333  0.77777778  0.30555556  1.0
  Tc  Tc150  1  0.66666667  0.11111111  0.30555556  1.0
  Tc  Tc151  1  0.66666667  0.44444444  0.30555556  1.0
  Tc  Tc152  1  0.66666667  0.77777778  0.30555556  1.0
  Tc  Tc153  1  0.00000000  0.27777778  0.27222222  1.0
  Tc  Tc154  1  0.00000000  0.61111111  0.27222222  1.0
  Tc  Tc155  1  0.00000000  0.94444444  0.27222222  1.0
  Tc  Tc156  1  0.33333333  0.27777778  0.27222222  1.0
  Tc  Tc157  1  0.33333333  0.61111111  0.27222222  1.0
  Tc  Tc158  1  0.33333333  0.94444444  0.27222222  1.0
  Tc  Tc159  1  0.66666667  0.27777778  0.27222222  1.0
  Tc  Tc160  1  0.66666667  0.61111111  0.27222222  1.0
  Tc  Tc161  1  0.66666667  0.94444444  0.27222222  1.0
  Ni  Ni162  1  0.16666667  0.16666667  0.29444444  1.0
  Ni  Ni163  1  0.16666667  0.50000000  0.29444444  1.0
  Ni  Ni164  1  0.16666667  0.83333333  0.29444444  1.0
  Ni  Ni165  1  0.50000000  0.16666667  0.29444444  1.0
  Ni  Ni166  1  0.50000000  0.50000000  0.29444444  1.0
  Ni  Ni167  1  0.50000000  0.83333333  0.29444444  1.0
  Ni  Ni168  1  0.83333333  0.16666667  0.29444444  1.0
  Ni  Ni169  1  0.83333333  0.50000000  0.29444444  1.0
  Ni  Ni170  1  0.83333333  0.83333333  0.29444444  1.0
  Ni  Ni171  1  0.16666667  0.00000000  0.32777778  1.0
  Ni  Ni172  1  0.16666667  0.33333333  0.32777778  1.0
  Ni  Ni173  1  0.16666667  0.66666667  0.32777778  1.0
  Ni  Ni174  1  0.50000000  0.00000000  0.32777778  1.0
  Ni  Ni175  1  0.50000000  0.33333333  0.32777778  1.0
  Ni  Ni176  1  0.50000000  0.66666667  0.32777778  1.0
  Ni  Ni177  1  0.83333333  0.00000000  0.32777778  1.0
  Ni  Ni178  1  0.83333333  0.33333333  0.32777778  1.0
  Ni  Ni179  1  0.83333333  0.66666667  0.32777778  1.0
  Tc  Tc180  1  0.00000000  0.11111111  0.37222222  1.0
  Tc  Tc181  1  0.00000000  0.44444444  0.37222222  1.0
  Tc  Tc182  1  0.00000000  0.77777778  0.37222222  1.0
  Tc  Tc183  1  0.33333333  0.11111111  0.37222222  1.0
  Tc  Tc184  1  0.33333333  0.44444444  0.37222222  1.0
  Tc  Tc185  1  0.33333333  0.77777778  0.37222222  1.0
  Tc  Tc186  1  0.66666667  0.11111111  0.37222222  1.0
  Tc  Tc187  1  0.66666667  0.44444444  0.37222222  1.0
  Tc  Tc188  1  0.66666667  0.77777778  0.37222222  1.0
  Tc  Tc189  1  0.00000000  0.27777778  0.33888889  1.0
  Tc  Tc190  1  0.00000000  0.61111111  0.33888889  1.0
  Tc  Tc191  1  0.00000000  0.94444444  0.33888889  1.0
  Tc  Tc192  1  0.33333333  0.27777778  0.33888889  1.0
  Tc  Tc193  1  0.33333333  0.61111111  0.33888889  1.0
  Tc  Tc194  1  0.33333333  0.94444444  0.33888889  1.0
  Tc  Tc195  1  0.66666667  0.27777778  0.33888889  1.0
  Tc  Tc196  1  0.66666667  0.61111111  0.33888889  1.0
  Tc  Tc197  1  0.66666667  0.94444444  0.33888889  1.0
  Ni  Ni198  1  0.16666667  0.16666667  0.36111111  1.0
  Ni  Ni199  1  0.16666667  0.50000000  0.36111111  1.0
  Ni  Ni200  1  0.16666667  0.83333333  0.36111111  1.0
  Ni  Ni201  1  0.50000000  0.16666667  0.36111111  1.0
  Ni  Ni202  1  0.50000000  0.50000000  0.36111111  1.0
  Ni  Ni203  1  0.50000000  0.83333333  0.36111111  1.0
  Ni  Ni204  1  0.83333333  0.16666667  0.36111111  1.0
  Ni  Ni205  1  0.83333333  0.50000000  0.36111111  1.0
  Ni  Ni206  1  0.83333333  0.83333333  0.36111111  1.0
  Ni  Ni207  1  0.16666667  0.00000000  0.39444444  1.0
  Ni  Ni208  1  0.16666667  0.33333333  0.39444444  1.0
  Ni  Ni209  1  0.16666667  0.66666667  0.39444444  1.0
  Ni  Ni210  1  0.50000000  0.00000000  0.39444444  1.0
  Ni  Ni211  1  0.50000000  0.33333333  0.39444444  1.0
  Ni  Ni212  1  0.50000000  0.66666667  0.39444444  1.0
  Ni  Ni213  1  0.83333333  0.00000000  0.39444444  1.0
  Ni  Ni214  1  0.83333333  0.33333333  0.39444444  1.0
  Ni  Ni215  1  0.83333333  0.66666667  0.39444444  1.0
