# generated using pymatgen
data_TcNi
_symmetry_space_group_name_H-M   'P 1'
_cell_length_a   13.79143867
_cell_length_b   14.90741583
_cell_length_c   53.08327220
_cell_angle_alpha   122.28489670
_cell_angle_beta   150.00000000
_cell_angle_gamma   62.44694771
_symmetry_Int_Tables_number   1
_chemical_formula_structural   TcNi
_chemical_formula_sum   'Tc72 Ni72'
_cell_volume   4613.21015147
_cell_formula_units_Z   72
loop_
 _symmetry_equiv_pos_site_id
 _symmetry_equiv_pos_as_xyz
  1  'x, y, z'
loop_
 _atom_site_type_symbol
 _atom_site_label
 _atom_site_symmetry_multiplicity
 _atom_site_fract_x
 _atom_site_fract_y
 _atom_site_fract_z
 _atom_site_occupancy
  Tc  Tc0  1  0.11111111  0.00000000  0.03750000  1.0
  Tc  Tc1  1  0.11111111  0.33333333  0.03750000  1.0
  Tc  Tc2  1  0.11111111  0.66666667  0.03750000  1.0
  Tc  Tc3  1  0.44444444  0.00000000  0.03750000  1.0
  Tc  Tc4  1  0.44444444  0.33333333  0.03750000  1.0
  Tc  Tc5  1  0.44444444  0.66666667  0.03750000  1.0
  Tc  Tc6  1  0.77777778  0.00000000  0.03750000  1.0
  Tc  Tc7  1  0.77777778  0.33333333  0.03750000  1.0
  Tc  Tc8  1  0.77777778  0.66666667  0.03750000  1.0
  Ni  Ni9  1  0.00000000  0.16666667  0.01250000  1.0
  Ni  Ni10  1  0.00000000  0.50000000  0.01250000  1.0
  Ni  Ni11  1  0.00000000  0.83333333  0.01250000  1.0
  Ni  Ni12  1  0.33333333  0.16666667  0.01250000  1.0
  Ni  Ni13  1  0.33333333  0.50000000  0.01250000  1.0
  Ni  Ni14  1  0.33333333  0.83333333  0.01250000  1.0
  Ni  Ni15  1  0.66666667  0.16666667  0.01250000  1.0
  Ni  Ni16  1  0.66666667  0.50000000  0.01250000  1.0
  Ni  Ni17  1  0.66666667  0.83333333  0.01250000  1.0
  Tc  Tc18  1  0.11111111  0.00000000  0.08750000  1.0
  Tc  Tc19  1  0.11111111  0.33333333  0.08750000  1.0
  Tc  Tc20  1  0.11111111  0.66666667  0.08750000  1.0
  Tc  Tc21  1  0.44444444  0.00000000  0.08750000  1.0
  Tc  Tc22  1  0.44444444  0.33333333  0.08750000  1.0
  Tc  Tc23  1  0.44444444  0.66666667  0.08750000  1.0
  Tc  Tc24  1  0.77777778  0.00000000  0.08750000  1.0
  Tc  Tc25  1  0.77777778  0.33333333  0.08750000  1.0
  Tc  Tc26  1  0.77777778  0.66666667  0.08750000  1.0
  Ni  Ni27  1  0.00000000  0.16666667  0.06250000  1.0
  Ni  Ni28  1  0.00000000  0.50000000  0.06250000  1.0
  Ni  Ni29  1  0.00000000  0.83333333  0.06250000  1.0
  Ni  Ni30  1  0.33333333  0.16666667  0.06250000  1.0
  Ni  Ni31  1  0.33333333  0.50000000  0.06250000  1.0
  Ni  Ni32  1  0.33333333  0.83333333  0.06250000  1.0
  Ni  Ni33  1  0.66666667  0.16666667  0.06250000  1.0
  Ni  Ni34  1  0.66666667  0.50000000  0.06250000  1.0
  Ni  Ni35  1  0.66666667  0.83333333  0.06250000  1.0
  Tc  Tc36  1  0.11111111  0.00000000  0.13750000  1.0
  Tc  Tc37  1  0.11111111  0.33333333  0.13750000  1.0
  Tc  Tc38  1  0.11111111  0.66666667  0.13750000  1.0
  Tc  Tc39  1  0.44444444  0.00000000  0.13750000  1.0
  Tc  Tc40  1  0.44444444  0.33333333  0.13750000  1.0
  Tc  Tc41  1  0.44444444  0.66666667  0.13750000  1.0
  Tc  Tc42  1  0.77777778  0.00000000  0.13750000  1.0
  Tc  Tc43  1  0.77777778  0.33333333  0.13750000  1.0
  Tc  Tc44  1  0.77777778  0.66666667  0.13750000  1.0
  Ni  Ni45  1  0.00000000  0.16666667  0.11250000  1.0
  Ni  Ni46  1  0.00000000  0.50000000  0.11250000  1.0
  Ni  Ni47  1  0.00000000  0.83333333  0.11250000  1.0
  Ni  Ni48  1  0.33333333  0.16666667  0.11250000  1.0
  Ni  Ni49  1  0.33333333  0.50000000  0.11250000  1.0
  Ni  Ni50  1  0.33333333  0.83333333  0.11250000  1.0
  Ni  Ni51  1  0.66666667  0.16666667  0.11250000  1.0
  Ni  Ni52  1  0.66666667  0.50000000  0.11250000  1.0
  Ni  Ni53  1  0.66666667  0.83333333  0.11250000  1.0
  Tc  Tc54  1  0.11111111  0.00000000  0.18750000  1.0
  Tc  Tc55  1  0.11111111  0.33333333  0.18750000  1.0
  Tc  Tc56  1  0.11111111  0.66666667  0.18750000  1.0
  Tc  Tc57  1  0.44444444  0.00000000  0.18750000  1.0
  Tc  Tc58  1  0.44444444  0.33333333  0.18750000  1.0
  Tc  Tc59  1  0.44444444  0.66666667  0.18750000  1.0
  Tc  Tc60  1  0.77777778  0.00000000  0.18750000  1.0
  Tc  Tc61  1  0.77777778  0.33333333  0.18750000  1.0
  Tc  Tc62  1  0.77777778  0.66666667  0.18750000  1.0
  Ni  Ni63  1  0.00000000  0.16666667  0.16250000  1.0
  Ni  Ni64  1  0.00000000  0.50000000  0.16250000  1.0
  Ni  Ni65  1  0.00000000  0.83333333  0.16250000  1.0
  Ni  Ni66  1  0.33333333  0.16666667  0.16250000  1.0
  Ni  Ni67  1  0.33333333  0.50000000  0.16250000  1.0
  Ni  Ni68  1  0.33333333  0.83333333  0.16250000  1.0
  Ni  Ni69  1  0.66666667  0.16666667  0.16250000  1.0
  Ni  Ni70  1  0.66666667  0.50000000  0.16250000  1.0
  Ni  Ni71  1  0.66666667  0.83333333  0.16250000  1.0
  Tc  Tc72  1  0.11111111  0.00000000  0.23750000  1.0
  Tc  Tc73  1  0.11111111  0.33333333  0.23750000  1.0
  Tc  Tc74  1  0.11111111  0.66666667  0.23750000  1.0
  Tc  Tc75  1  0.44444444  0.00000000  0.23750000  1.0
  Tc  Tc76  1  0.44444444  0.33333333  0.23750000  1.0
  Tc  Tc77  1  0.44444444  0.66666667  0.23750000  1.0
  Tc  Tc78  1  0.77777778  0.00000000  0.23750000  1.0
  Tc  Tc79  1  0.77777778  0.33333333  0.23750000  1.0
  Tc  Tc80  1  0.77777778  0.66666667  0.23750000  1.0
  Ni  Ni81  1  0.00000000  0.16666667  0.21250000  1.0
  Ni  Ni82  1  0.00000000  0.50000000  0.21250000  1.0
  Ni  Ni83  1  0.00000000  0.83333333  0.21250000  1.0
  Ni  Ni84  1  0.33333333  0.16666667  0.21250000  1.0
  Ni  Ni85  1  0.33333333  0.50000000  0.21250000  1.0
  Ni  Ni86  1  0.33333333  0.83333333  0.21250000  1.0
  Ni  Ni87  1  0.66666667  0.16666667  0.21250000  1.0
  Ni  Ni88  1  0.66666667  0.50000000  0.21250000  1.0
  Ni  Ni89  1  0.66666667  0.83333333  0.21250000  1.0
  Tc  Tc90  1  0.11111111  0.00000000  0.28750000  1.0
  Tc  Tc91  1  0.11111111  0.33333333  0.28750000  1.0
  Tc  Tc92  1  0.11111111  0.66666667  0.28750000  1.0
  Tc  Tc93  1  0.44444444  0.00000000  0.28750000  1.0
  Tc  Tc94  1  0.44444444  0.33333333  0.28750000  1.0
  Tc  Tc95  1  0.44444444  0.66666667  0.28750000  1.0
  Tc  Tc96  1  0.77777778  0.00000000  0.28750000  1.0
  Tc  Tc97  1  0.77777778  0.33333333  0.28750000  1.0
  Tc  Tc98  1  0.77777778  0.66666667  0.28750000  1.0
  Ni  Ni99  1  0.00000000  0.16666667  0.26250000  1.0
  Ni  Ni100  1  0.00000000  0.50000000  0.26250000  1.0
  Ni  Ni101  1  0.00000000  0.83333333  0.26250000  1.0
  Ni  Ni102  1  0.33333333  0.16666667  0.26250000  1.0
  Ni  Ni103  1  0.33333333  0.50000000  0.26250000  1.0
  Ni  Ni104  1  0.33333333  0.83333333  0.26250000  1.0
  Ni  Ni105  1  0.66666667  0.16666667  0.26250000  1.0
  Ni  Ni106  1  0.66666667  0.50000000  0.26250000  1.0
  Ni  Ni107  1  0.66666667  0.83333333  0.26250000  1.0
  Tc  Tc108  1  0.11111111  0.00000000  0.33750000  1.0
  Tc  Tc109  1  0.11111111  0.33333333  0.33750000  1.0
  Tc  Tc110  1  0.11111111  0.66666667  0.33750000  1.0
  Tc  Tc111  1  0.44444444  0.00000000  0.33750000  1.0
  Tc  Tc112  1  0.44444444  0.33333333  0.33750000  1.0
  Tc  Tc113  1  0.44444444  0.66666667  0.33750000  1.0
  Tc  Tc114  1  0.77777778  0.00000000  0.33750000  1.0
  Tc  Tc115  1  0.77777778  0.33333333  0.33750000  1.0
  Tc  Tc116  1  0.77777778  0.66666667  0.33750000  1.0
  Ni  Ni117  1  0.00000000  0.16666667  0.31250000  1.0
  Ni  Ni118  1  0.00000000  0.50000000  0.31250000  1.0
  Ni  Ni119  1  0.00000000  0.83333333  0.31250000  1.0
  Ni  Ni120  1  0.33333333  0.16666667  0.31250000  1.0
  Ni  Ni121  1  0.33333333  0.50000000  0.31250000  1.0
  Ni  Ni122  1  0.33333333  0.83333333  0.31250000  1.0
  Ni  Ni123  1  0.66666667  0.16666667  0.31250000  1.0
  Ni  Ni124  1  0.66666667  0.50000000  0.31250000  1.0
  Ni  Ni125  1  0.66666667  0.83333333  0.31250000  1.0
  Tc  Tc126  1  0.11111111  0.00000000  0.38750000  1.0
  Tc  Tc127  1  0.11111111  0.33333333  0.38750000  1.0
  Tc  Tc128  1  0.11111111  0.66666667  0.38750000  1.0
  Tc  Tc129  1  0.44444444  0.00000000  0.38750000  1.0
  Tc  Tc130  1  0.44444444  0.33333333  0.38750000  1.0
  Tc  Tc131  1  0.44444444  0.66666667  0.38750000  1.0
  Tc  Tc132  1  0.77777778  0.00000000  0.38750000  1.0
  Tc  Tc133  1  0.77777778  0.33333333  0.38750000  1.0
  Tc  Tc134  1  0.77777778  0.66666667  0.38750000  1.0
  Ni  Ni135  1  0.00000000  0.16666667  0.36250000  1.0
  Ni  Ni136  1  0.00000000  0.50000000  0.36250000  1.0
  Ni  Ni137  1  0.00000000  0.83333333  0.36250000  1.0
  Ni  Ni138  1  0.33333333  0.16666667  0.36250000  1.0
  Ni  Ni139  1  0.33333333  0.50000000  0.36250000  1.0
  Ni  Ni140  1  0.33333333  0.83333333  0.36250000  1.0
  Ni  Ni141  1  0.66666667  0.16666667  0.36250000  1.0
  Ni  Ni142  1  0.66666667  0.50000000  0.36250000  1.0
  Ni  Ni143  1  0.66666667  0.83333333  0.36250000  1.0
