# generated using pymatgen
data_Ti2Ni
_symmetry_space_group_name_H-M   'P 1'
_cell_length_a   23.91783597
_cell_length_b   23.91783597
_cell_length_c   39.86305995
_cell_angle_alpha   120.00000000
_cell_angle_beta   60.00000000
_cell_angle_gamma   90.00000000
_symmetry_Int_Tables_number   1
_chemical_formula_structural   Ti2Ni
_chemical_formula_sum   'Ti288 Ni144'
_cell_volume   16124.98804084
_cell_formula_units_Z   144
loop_
 _symmetry_equiv_pos_site_id
 _symmetry_equiv_pos_as_xyz
  1  'x, y, z'
loop_
 _atom_site_type_symbol
 _atom_site_label
 _atom_site_symmetry_multiplicity
 _atom_site_fract_x
 _atom_site_fract_y
 _atom_site_fract_z
 _atom_site_occupancy
  Ti  Ti0  1  0.29166667  0.29166667  0.03747580  1.0
  Ti  Ti1  1  0.29166667  0.62500000  0.03747580  1.0
  Ti  Ti2  1  0.29166667  0.95833333  0.03747580  1.0
  Ti  Ti3  1  0.62500000  0.29166667  0.03747580  1.0
  Ti  Ti4  1  0.62500000  0.62500000  0.03747580  1.0
  Ti  Ti5  1  0.62500000  0.95833333  0.03747580  1.0
  Ti  Ti6  1  0.95833333  0.29166667  0.03747580  1.0
  Ti  Ti7  1  0.95833333  0.62500000  0.03747580  1.0
  Ti  Ti8  1  0.95833333  0.95833333  0.03747580  1.0
  Ti  Ti9  1  0.29166667  0.12500000  0.03747580  1.0
  Ti  Ti10  1  0.29166667  0.45833333  0.03747580  1.0
  Ti  Ti11  1  0.29166667  0.79166667  0.03747580  1.0
  Ti  Ti12  1  0.62500000  0.12500000  0.03747580  1.0
  Ti  Ti13  1  0.62500000  0.45833333  0.03747580  1.0
  Ti  Ti14  1  0.62500000  0.79166667  0.03747580  1.0
  Ti  Ti15  1  0.95833333  0.12500000  0.03747580  1.0
  Ti  Ti16  1  0.95833333  0.45833333  0.03747580  1.0
  Ti  Ti17  1  0.95833333  0.79166667  0.03747580  1.0
  Ti  Ti18  1  0.12500000  0.29166667  0.13747580  1.0
  Ti  Ti19  1  0.12500000  0.62500000  0.13747580  1.0
  Ti  Ti20  1  0.12500000  0.95833333  0.13747580  1.0
  Ti  Ti21  1  0.45833333  0.29166667  0.13747580  1.0
  Ti  Ti22  1  0.45833333  0.62500000  0.13747580  1.0
  Ti  Ti23  1  0.45833333  0.95833333  0.13747580  1.0
  Ti  Ti24  1  0.79166667  0.29166667  0.13747580  1.0
  Ti  Ti25  1  0.79166667  0.62500000  0.13747580  1.0
  Ti  Ti26  1  0.79166667  0.95833333  0.13747580  1.0
  Ti  Ti27  1  0.29166667  0.29166667  0.13747580  1.0
  Ti  Ti28  1  0.29166667  0.62500000  0.13747580  1.0
  Ti  Ti29  1  0.29166667  0.95833333  0.13747580  1.0
  Ti  Ti30  1  0.62500000  0.29166667  0.13747580  1.0
  Ti  Ti31  1  0.62500000  0.62500000  0.13747580  1.0
  Ti  Ti32  1  0.62500000  0.95833333  0.13747580  1.0
  Ti  Ti33  1  0.95833333  0.29166667  0.13747580  1.0
  Ti  Ti34  1  0.95833333  0.62500000  0.13747580  1.0
  Ti  Ti35  1  0.95833333  0.95833333  0.13747580  1.0
  Ti  Ti36  1  0.10420700  0.22912633  0.06242740  1.0
  Ti  Ti37  1  0.10420700  0.56245967  0.06242740  1.0
  Ti  Ti38  1  0.10420700  0.89579300  0.06242740  1.0
  Ti  Ti39  1  0.43754033  0.22912633  0.06242740  1.0
  Ti  Ti40  1  0.43754033  0.56245967  0.06242740  1.0
  Ti  Ti41  1  0.43754033  0.89579300  0.06242740  1.0
  Ti  Ti42  1  0.77087367  0.22912633  0.06242740  1.0
  Ti  Ti43  1  0.77087367  0.56245967  0.06242740  1.0
  Ti  Ti44  1  0.77087367  0.89579300  0.06242740  1.0
  Ti  Ti45  1  0.22912633  0.10420700  0.11252420  1.0
  Ti  Ti46  1  0.22912633  0.43754033  0.11252420  1.0
  Ti  Ti47  1  0.22912633  0.77087367  0.11252420  1.0
  Ti  Ti48  1  0.56245967  0.10420700  0.11252420  1.0
  Ti  Ti49  1  0.56245967  0.43754033  0.11252420  1.0
  Ti  Ti50  1  0.56245967  0.77087367  0.11252420  1.0
  Ti  Ti51  1  0.89579300  0.10420700  0.11252420  1.0
  Ti  Ti52  1  0.89579300  0.43754033  0.11252420  1.0
  Ti  Ti53  1  0.89579300  0.77087367  0.11252420  1.0
  Ti  Ti54  1  0.22912633  0.10420700  0.18747580  1.0
  Ti  Ti55  1  0.22912633  0.43754033  0.18747580  1.0
  Ti  Ti56  1  0.22912633  0.77087367  0.18747580  1.0
  Ti  Ti57  1  0.56245967  0.10420700  0.18747580  1.0
  Ti  Ti58  1  0.56245967  0.43754033  0.18747580  1.0
  Ti  Ti59  1  0.56245967  0.77087367  0.18747580  1.0
  Ti  Ti60  1  0.89579300  0.10420700  0.18747580  1.0
  Ti  Ti61  1  0.89579300  0.43754033  0.18747580  1.0
  Ti  Ti62  1  0.89579300  0.77087367  0.18747580  1.0
  Ti  Ti63  1  0.10420700  0.22912633  0.18747580  1.0
  Ti  Ti64  1  0.10420700  0.56245967  0.18747580  1.0
  Ti  Ti65  1  0.10420700  0.89579300  0.18747580  1.0
  Ti  Ti66  1  0.43754033  0.22912633  0.18747580  1.0
  Ti  Ti67  1  0.43754033  0.56245967  0.18747580  1.0
  Ti  Ti68  1  0.43754033  0.89579300  0.18747580  1.0
  Ti  Ti69  1  0.77087367  0.22912633  0.18747580  1.0
  Ti  Ti70  1  0.77087367  0.56245967  0.18747580  1.0
  Ti  Ti71  1  0.77087367  0.89579300  0.18747580  1.0
  Ti  Ti72  1  0.22912633  0.22912633  0.18747580  1.0
  Ti  Ti73  1  0.22912633  0.56245967  0.18747580  1.0
  Ti  Ti74  1  0.22912633  0.89579300  0.18747580  1.0
  Ti  Ti75  1  0.56245967  0.22912633  0.18747580  1.0
  Ti  Ti76  1  0.56245967  0.56245967  0.18747580  1.0
  Ti  Ti77  1  0.56245967  0.89579300  0.18747580  1.0
  Ti  Ti78  1  0.89579300  0.22912633  0.18747580  1.0
  Ti  Ti79  1  0.89579300  0.56245967  0.18747580  1.0
  Ti  Ti80  1  0.89579300  0.89579300  0.18747580  1.0
  Ti  Ti81  1  0.10420700  0.10420700  0.18747580  1.0
  Ti  Ti82  1  0.10420700  0.43754033  0.18747580  1.0
  Ti  Ti83  1  0.10420700  0.77087367  0.18747580  1.0
  Ti  Ti84  1  0.43754033  0.10420700  0.18747580  1.0
  Ti  Ti85  1  0.43754033  0.43754033  0.18747580  1.0
  Ti  Ti86  1  0.43754033  0.77087367  0.18747580  1.0
  Ti  Ti87  1  0.77087367  0.10420700  0.18747580  1.0
  Ti  Ti88  1  0.77087367  0.43754033  0.18747580  1.0
  Ti  Ti89  1  0.77087367  0.77087367  0.18747580  1.0
  Ti  Ti90  1  0.14579300  0.02087367  0.01252420  1.0
  Ti  Ti91  1  0.14579300  0.35420700  0.01252420  1.0
  Ti  Ti92  1  0.14579300  0.68754033  0.01252420  1.0
  Ti  Ti93  1  0.47912633  0.02087367  0.01252420  1.0
  Ti  Ti94  1  0.47912633  0.35420700  0.01252420  1.0
  Ti  Ti95  1  0.47912633  0.68754033  0.01252420  1.0
  Ti  Ti96  1  0.81245967  0.02087367  0.01252420  1.0
  Ti  Ti97  1  0.81245967  0.35420700  0.01252420  1.0
  Ti  Ti98  1  0.81245967  0.68754033  0.01252420  1.0
  Ti  Ti99  1  0.02087367  0.14579300  0.16242740  1.0
  Ti  Ti100  1  0.02087367  0.47912633  0.16242740  1.0
  Ti  Ti101  1  0.02087367  0.81245967  0.16242740  1.0
  Ti  Ti102  1  0.35420700  0.14579300  0.16242740  1.0
  Ti  Ti103  1  0.35420700  0.47912633  0.16242740  1.0
  Ti  Ti104  1  0.35420700  0.81245967  0.16242740  1.0
  Ti  Ti105  1  0.68754033  0.14579300  0.16242740  1.0
  Ti  Ti106  1  0.68754033  0.47912633  0.16242740  1.0
  Ti  Ti107  1  0.68754033  0.81245967  0.16242740  1.0
  Ti  Ti108  1  0.02087367  0.14579300  0.08747580  1.0
  Ti  Ti109  1  0.02087367  0.47912633  0.08747580  1.0
  Ti  Ti110  1  0.02087367  0.81245967  0.08747580  1.0
  Ti  Ti111  1  0.35420700  0.14579300  0.08747580  1.0
  Ti  Ti112  1  0.35420700  0.47912633  0.08747580  1.0
  Ti  Ti113  1  0.35420700  0.81245967  0.08747580  1.0
  Ti  Ti114  1  0.68754033  0.14579300  0.08747580  1.0
  Ti  Ti115  1  0.68754033  0.47912633  0.08747580  1.0
  Ti  Ti116  1  0.68754033  0.81245967  0.08747580  1.0
  Ti  Ti117  1  0.14579300  0.02087367  0.08747580  1.0
  Ti  Ti118  1  0.14579300  0.35420700  0.08747580  1.0
  Ti  Ti119  1  0.14579300  0.68754033  0.08747580  1.0
  Ti  Ti120  1  0.47912633  0.02087367  0.08747580  1.0
  Ti  Ti121  1  0.47912633  0.35420700  0.08747580  1.0
  Ti  Ti122  1  0.47912633  0.68754033  0.08747580  1.0
  Ti  Ti123  1  0.81245967  0.02087367  0.08747580  1.0
  Ti  Ti124  1  0.81245967  0.35420700  0.08747580  1.0
  Ti  Ti125  1  0.81245967  0.68754033  0.08747580  1.0
  Ti  Ti126  1  0.02087367  0.02087367  0.08747580  1.0
  Ti  Ti127  1  0.02087367  0.35420700  0.08747580  1.0
  Ti  Ti128  1  0.02087367  0.68754033  0.08747580  1.0
  Ti  Ti129  1  0.35420700  0.02087367  0.08747580  1.0
  Ti  Ti130  1  0.35420700  0.35420700  0.08747580  1.0
  Ti  Ti131  1  0.35420700  0.68754033  0.08747580  1.0
  Ti  Ti132  1  0.68754033  0.02087367  0.08747580  1.0
  Ti  Ti133  1  0.68754033  0.35420700  0.08747580  1.0
  Ti  Ti134  1  0.68754033  0.68754033  0.08747580  1.0
  Ti  Ti135  1  0.14579300  0.14579300  0.08747580  1.0
  Ti  Ti136  1  0.14579300  0.47912633  0.08747580  1.0
  Ti  Ti137  1  0.14579300  0.81245967  0.08747580  1.0
  Ti  Ti138  1  0.47912633  0.14579300  0.08747580  1.0
  Ti  Ti139  1  0.47912633  0.47912633  0.08747580  1.0
  Ti  Ti140  1  0.47912633  0.81245967  0.08747580  1.0
  Ti  Ti141  1  0.81245967  0.14579300  0.08747580  1.0
  Ti  Ti142  1  0.81245967  0.47912633  0.08747580  1.0
  Ti  Ti143  1  0.81245967  0.81245967  0.08747580  1.0
  Ni  Ni144  1  0.02949378  0.02949378  0.15208327  1.0
  Ni  Ni145  1  0.02949378  0.36282711  0.15208327  1.0
  Ni  Ni146  1  0.02949378  0.69616044  0.15208327  1.0
  Ni  Ni147  1  0.36282711  0.02949378  0.15208327  1.0
  Ni  Ni148  1  0.36282711  0.36282711  0.15208327  1.0
  Ni  Ni149  1  0.36282711  0.69616044  0.15208327  1.0
  Ni  Ni150  1  0.69616044  0.02949378  0.15208327  1.0
  Ni  Ni151  1  0.69616044  0.36282711  0.15208327  1.0
  Ni  Ni152  1  0.69616044  0.69616044  0.15208327  1.0
  Ni  Ni153  1  0.02949378  0.24485200  0.15208327  1.0
  Ni  Ni154  1  0.02949378  0.57818533  0.15208327  1.0
  Ni  Ni155  1  0.02949378  0.91151867  0.15208327  1.0
  Ni  Ni156  1  0.36282711  0.24485200  0.15208327  1.0
  Ni  Ni157  1  0.36282711  0.57818533  0.15208327  1.0
  Ni  Ni158  1  0.36282711  0.91151867  0.15208327  1.0
  Ni  Ni159  1  0.69616044  0.24485200  0.15208327  1.0
  Ni  Ni160  1  0.69616044  0.57818533  0.15208327  1.0
  Ni  Ni161  1  0.69616044  0.91151867  0.15208327  1.0
  Ni  Ni162  1  0.24485200  0.02949378  0.02286833  1.0
  Ni  Ni163  1  0.24485200  0.36282711  0.02286833  1.0
  Ni  Ni164  1  0.24485200  0.69616044  0.02286833  1.0
  Ni  Ni165  1  0.57818533  0.02949378  0.02286833  1.0
  Ni  Ni166  1  0.57818533  0.36282711  0.02286833  1.0
  Ni  Ni167  1  0.57818533  0.69616044  0.02286833  1.0
  Ni  Ni168  1  0.91151867  0.02949378  0.02286833  1.0
  Ni  Ni169  1  0.91151867  0.36282711  0.02286833  1.0
  Ni  Ni170  1  0.91151867  0.69616044  0.02286833  1.0
  Ni  Ni171  1  0.02949378  0.02949378  0.02286833  1.0
  Ni  Ni172  1  0.02949378  0.36282711  0.02286833  1.0
  Ni  Ni173  1  0.02949378  0.69616044  0.02286833  1.0
  Ni  Ni174  1  0.36282711  0.02949378  0.02286833  1.0
  Ni  Ni175  1  0.36282711  0.36282711  0.02286833  1.0
  Ni  Ni176  1  0.36282711  0.69616044  0.02286833  1.0
  Ni  Ni177  1  0.69616044  0.02949378  0.02286833  1.0
  Ni  Ni178  1  0.69616044  0.36282711  0.02286833  1.0
  Ni  Ni179  1  0.69616044  0.69616044  0.02286833  1.0
  Ni  Ni180  1  0.22050622  0.22050622  0.12286833  1.0
  Ni  Ni181  1  0.22050622  0.55383956  0.12286833  1.0
  Ni  Ni182  1  0.22050622  0.88717289  0.12286833  1.0
  Ni  Ni183  1  0.55383956  0.22050622  0.12286833  1.0
  Ni  Ni184  1  0.55383956  0.55383956  0.12286833  1.0
  Ni  Ni185  1  0.55383956  0.88717289  0.12286833  1.0
  Ni  Ni186  1  0.88717289  0.22050622  0.12286833  1.0
  Ni  Ni187  1  0.88717289  0.55383956  0.12286833  1.0
  Ni  Ni188  1  0.88717289  0.88717289  0.12286833  1.0
  Ni  Ni189  1  0.22050622  0.00514800  0.12286833  1.0
  Ni  Ni190  1  0.22050622  0.33848133  0.12286833  1.0
  Ni  Ni191  1  0.22050622  0.67181467  0.12286833  1.0
  Ni  Ni192  1  0.55383956  0.00514800  0.12286833  1.0
  Ni  Ni193  1  0.55383956  0.33848133  0.12286833  1.0
  Ni  Ni194  1  0.55383956  0.67181467  0.12286833  1.0
  Ni  Ni195  1  0.88717289  0.00514800  0.12286833  1.0
  Ni  Ni196  1  0.88717289  0.33848133  0.12286833  1.0
  Ni  Ni197  1  0.88717289  0.67181467  0.12286833  1.0
  Ni  Ni198  1  0.00514800  0.22050622  0.05208327  1.0
  Ni  Ni199  1  0.00514800  0.55383956  0.05208327  1.0
  Ni  Ni200  1  0.00514800  0.88717289  0.05208327  1.0
  Ni  Ni201  1  0.33848133  0.22050622  0.05208327  1.0
  Ni  Ni202  1  0.33848133  0.55383956  0.05208327  1.0
  Ni  Ni203  1  0.33848133  0.88717289  0.05208327  1.0
  Ni  Ni204  1  0.67181467  0.22050622  0.05208327  1.0
  Ni  Ni205  1  0.67181467  0.55383956  0.05208327  1.0
  Ni  Ni206  1  0.67181467  0.88717289  0.05208327  1.0
  Ni  Ni207  1  0.22050622  0.22050622  0.05208327  1.0
  Ni  Ni208  1  0.22050622  0.55383956  0.05208327  1.0
  Ni  Ni209  1  0.22050622  0.88717289  0.05208327  1.0
  Ni  Ni210  1  0.55383956  0.22050622  0.05208327  1.0
  Ni  Ni211  1  0.55383956  0.55383956  0.05208327  1.0
  Ni  Ni212  1  0.55383956  0.88717289  0.05208327  1.0
  Ni  Ni213  1  0.88717289  0.22050622  0.05208327  1.0
  Ni  Ni214  1  0.88717289  0.55383956  0.05208327  1.0
  Ni  Ni215  1  0.88717289  0.88717289  0.05208327  1.0
  Ti  Ti216  1  0.29166667  0.29166667  0.23747580  1.0
  Ti  Ti217  1  0.29166667  0.62500000  0.23747580  1.0
  Ti  Ti218  1  0.29166667  0.95833333  0.23747580  1.0
  Ti  Ti219  1  0.62500000  0.29166667  0.23747580  1.0
  Ti  Ti220  1  0.62500000  0.62500000  0.23747580  1.0
  Ti  Ti221  1  0.62500000  0.95833333  0.23747580  1.0
  Ti  Ti222  1  0.95833333  0.29166667  0.23747580  1.0
  Ti  Ti223  1  0.95833333  0.62500000  0.23747580  1.0
  Ti  Ti224  1  0.95833333  0.95833333  0.23747580  1.0
  Ti  Ti225  1  0.29166667  0.12500000  0.23747580  1.0
  Ti  Ti226  1  0.29166667  0.45833333  0.23747580  1.0
  Ti  Ti227  1  0.29166667  0.79166667  0.23747580  1.0
  Ti  Ti228  1  0.62500000  0.12500000  0.23747580  1.0
  Ti  Ti229  1  0.62500000  0.45833333  0.23747580  1.0
  Ti  Ti230  1  0.62500000  0.79166667  0.23747580  1.0
  Ti  Ti231  1  0.95833333  0.12500000  0.23747580  1.0
  Ti  Ti232  1  0.95833333  0.45833333  0.23747580  1.0
  Ti  Ti233  1  0.95833333  0.79166667  0.23747580  1.0
  Ti  Ti234  1  0.12500000  0.29166667  0.33747580  1.0
  Ti  Ti235  1  0.12500000  0.62500000  0.33747580  1.0
  Ti  Ti236  1  0.12500000  0.95833333  0.33747580  1.0
  Ti  Ti237  1  0.45833333  0.29166667  0.33747580  1.0
  Ti  Ti238  1  0.45833333  0.62500000  0.33747580  1.0
  Ti  Ti239  1  0.45833333  0.95833333  0.33747580  1.0
  Ti  Ti240  1  0.79166667  0.29166667  0.33747580  1.0
  Ti  Ti241  1  0.79166667  0.62500000  0.33747580  1.0
  Ti  Ti242  1  0.79166667  0.95833333  0.33747580  1.0
  Ti  Ti243  1  0.29166667  0.29166667  0.33747580  1.0
  Ti  Ti244  1  0.29166667  0.62500000  0.33747580  1.0
  Ti  Ti245  1  0.29166667  0.95833333  0.33747580  1.0
  Ti  Ti246  1  0.62500000  0.29166667  0.33747580  1.0
  Ti  Ti247  1  0.62500000  0.62500000  0.33747580  1.0
  Ti  Ti248  1  0.62500000  0.95833333  0.33747580  1.0
  Ti  Ti249  1  0.95833333  0.29166667  0.33747580  1.0
  Ti  Ti250  1  0.95833333  0.62500000  0.33747580  1.0
  Ti  Ti251  1  0.95833333  0.95833333  0.33747580  1.0
  Ti  Ti252  1  0.10420700  0.22912633  0.26242740  1.0
  Ti  Ti253  1  0.10420700  0.56245967  0.26242740  1.0
  Ti  Ti254  1  0.10420700  0.89579300  0.26242740  1.0
  Ti  Ti255  1  0.43754033  0.22912633  0.26242740  1.0
  Ti  Ti256  1  0.43754033  0.56245967  0.26242740  1.0
  Ti  Ti257  1  0.43754033  0.89579300  0.26242740  1.0
  Ti  Ti258  1  0.77087367  0.22912633  0.26242740  1.0
  Ti  Ti259  1  0.77087367  0.56245967  0.26242740  1.0
  Ti  Ti260  1  0.77087367  0.89579300  0.26242740  1.0
  Ti  Ti261  1  0.22912633  0.10420700  0.31252420  1.0
  Ti  Ti262  1  0.22912633  0.43754033  0.31252420  1.0
  Ti  Ti263  1  0.22912633  0.77087367  0.31252420  1.0
  Ti  Ti264  1  0.56245967  0.10420700  0.31252420  1.0
  Ti  Ti265  1  0.56245967  0.43754033  0.31252420  1.0
  Ti  Ti266  1  0.56245967  0.77087367  0.31252420  1.0
  Ti  Ti267  1  0.89579300  0.10420700  0.31252420  1.0
  Ti  Ti268  1  0.89579300  0.43754033  0.31252420  1.0
  Ti  Ti269  1  0.89579300  0.77087367  0.31252420  1.0
  Ti  Ti270  1  0.22912633  0.10420700  0.38747580  1.0
  Ti  Ti271  1  0.22912633  0.43754033  0.38747580  1.0
  Ti  Ti272  1  0.22912633  0.77087367  0.38747580  1.0
  Ti  Ti273  1  0.56245967  0.10420700  0.38747580  1.0
  Ti  Ti274  1  0.56245967  0.43754033  0.38747580  1.0
  Ti  Ti275  1  0.56245967  0.77087367  0.38747580  1.0
  Ti  Ti276  1  0.89579300  0.10420700  0.38747580  1.0
  Ti  Ti277  1  0.89579300  0.43754033  0.38747580  1.0
  Ti  Ti278  1  0.89579300  0.77087367  0.38747580  1.0
  Ti  Ti279  1  0.10420700  0.22912633  0.38747580  1.0
  Ti  Ti280  1  0.10420700  0.56245967  0.38747580  1.0
  Ti  Ti281  1  0.10420700  0.89579300  0.38747580  1.0
  Ti  Ti282  1  0.43754033  0.22912633  0.38747580  1.0
  Ti  Ti283  1  0.43754033  0.56245967  0.38747580  1.0
  Ti  Ti284  1  0.43754033  0.89579300  0.38747580  1.0
  Ti  Ti285  1  0.77087367  0.22912633  0.38747580  1.0
  Ti  Ti286  1  0.77087367  0.56245967  0.38747580  1.0
  Ti  Ti287  1  0.77087367  0.89579300  0.38747580  1.0
  Ti  Ti288  1  0.22912633  0.22912633  0.38747580  1.0
  Ti  Ti289  1  0.22912633  0.56245967  0.38747580  1.0
  Ti  Ti290  1  0.22912633  0.89579300  0.38747580  1.0
  Ti  Ti291  1  0.56245967  0.22912633  0.38747580  1.0
  Ti  Ti292  1  0.56245967  0.56245967  0.38747580  1.0
  Ti  Ti293  1  0.56245967  0.89579300  0.38747580  1.0
  Ti  Ti294  1  0.89579300  0.22912633  0.38747580  1.0
  Ti  Ti295  1  0.89579300  0.56245967  0.38747580  1.0
  Ti  Ti296  1  0.89579300  0.89579300  0.38747580  1.0
  Ti  Ti297  1  0.10420700  0.10420700  0.38747580  1.0
  Ti  Ti298  1  0.10420700  0.43754033  0.38747580  1.0
  Ti  Ti299  1  0.10420700  0.77087367  0.38747580  1.0
  Ti  Ti300  1  0.43754033  0.10420700  0.38747580  1.0
  Ti  Ti301  1  0.43754033  0.43754033  0.38747580  1.0
  Ti  Ti302  1  0.43754033  0.77087367  0.38747580  1.0
  Ti  Ti303  1  0.77087367  0.10420700  0.38747580  1.0
  Ti  Ti304  1  0.77087367  0.43754033  0.38747580  1.0
  Ti  Ti305  1  0.77087367  0.77087367  0.38747580  1.0
  Ti  Ti306  1  0.14579300  0.02087367  0.21252420  1.0
  Ti  Ti307  1  0.14579300  0.35420700  0.21252420  1.0
  Ti  Ti308  1  0.14579300  0.68754033  0.21252420  1.0
  Ti  Ti309  1  0.47912633  0.02087367  0.21252420  1.0
  Ti  Ti310  1  0.47912633  0.35420700  0.21252420  1.0
  Ti  Ti311  1  0.47912633  0.68754033  0.21252420  1.0
  Ti  Ti312  1  0.81245967  0.02087367  0.21252420  1.0
  Ti  Ti313  1  0.81245967  0.35420700  0.21252420  1.0
  Ti  Ti314  1  0.81245967  0.68754033  0.21252420  1.0
  Ti  Ti315  1  0.02087367  0.14579300  0.36242740  1.0
  Ti  Ti316  1  0.02087367  0.47912633  0.36242740  1.0
  Ti  Ti317  1  0.02087367  0.81245967  0.36242740  1.0
  Ti  Ti318  1  0.35420700  0.14579300  0.36242740  1.0
  Ti  Ti319  1  0.35420700  0.47912633  0.36242740  1.0
  Ti  Ti320  1  0.35420700  0.81245967  0.36242740  1.0
  Ti  Ti321  1  0.68754033  0.14579300  0.36242740  1.0
  Ti  Ti322  1  0.68754033  0.47912633  0.36242740  1.0
  Ti  Ti323  1  0.68754033  0.81245967  0.36242740  1.0
  Ti  Ti324  1  0.02087367  0.14579300  0.28747580  1.0
  Ti  Ti325  1  0.02087367  0.47912633  0.28747580  1.0
  Ti  Ti326  1  0.02087367  0.81245967  0.28747580  1.0
  Ti  Ti327  1  0.35420700  0.14579300  0.28747580  1.0
  Ti  Ti328  1  0.35420700  0.47912633  0.28747580  1.0
  Ti  Ti329  1  0.35420700  0.81245967  0.28747580  1.0
  Ti  Ti330  1  0.68754033  0.14579300  0.28747580  1.0
  Ti  Ti331  1  0.68754033  0.47912633  0.28747580  1.0
  Ti  Ti332  1  0.68754033  0.81245967  0.28747580  1.0
  Ti  Ti333  1  0.14579300  0.02087367  0.28747580  1.0
  Ti  Ti334  1  0.14579300  0.35420700  0.28747580  1.0
  Ti  Ti335  1  0.14579300  0.68754033  0.28747580  1.0
  Ti  Ti336  1  0.47912633  0.02087367  0.28747580  1.0
  Ti  Ti337  1  0.47912633  0.35420700  0.28747580  1.0
  Ti  Ti338  1  0.47912633  0.68754033  0.28747580  1.0
  Ti  Ti339  1  0.81245967  0.02087367  0.28747580  1.0
  Ti  Ti340  1  0.81245967  0.35420700  0.28747580  1.0
  Ti  Ti341  1  0.81245967  0.68754033  0.28747580  1.0
  Ti  Ti342  1  0.02087367  0.02087367  0.28747580  1.0
  Ti  Ti343  1  0.02087367  0.35420700  0.28747580  1.0
  Ti  Ti344  1  0.02087367  0.68754033  0.28747580  1.0
  Ti  Ti345  1  0.35420700  0.02087367  0.28747580  1.0
  Ti  Ti346  1  0.35420700  0.35420700  0.28747580  1.0
  Ti  Ti347  1  0.35420700  0.68754033  0.28747580  1.0
  Ti  Ti348  1  0.68754033  0.02087367  0.28747580  1.0
  Ti  Ti349  1  0.68754033  0.35420700  0.28747580  1.0
  Ti  Ti350  1  0.68754033  0.68754033  0.28747580  1.0
  Ti  Ti351  1  0.14579300  0.14579300  0.28747580  1.0
  Ti  Ti352  1  0.14579300  0.47912633  0.28747580  1.0
  Ti  Ti353  1  0.14579300  0.81245967  0.28747580  1.0
  Ti  Ti354  1  0.47912633  0.14579300  0.28747580  1.0
  Ti  Ti355  1  0.47912633  0.47912633  0.28747580  1.0
  Ti  Ti356  1  0.47912633  0.81245967  0.28747580  1.0
  Ti  Ti357  1  0.81245967  0.14579300  0.28747580  1.0
  Ti  Ti358  1  0.81245967  0.47912633  0.28747580  1.0
  Ti  Ti359  1  0.81245967  0.81245967  0.28747580  1.0
  Ni  Ni360  1  0.02949378  0.02949378  0.35208327  1.0
  Ni  Ni361  1  0.02949378  0.36282711  0.35208327  1.0
  Ni  Ni362  1  0.02949378  0.69616044  0.35208327  1.0
  Ni  Ni363  1  0.36282711  0.02949378  0.35208327  1.0
  Ni  Ni364  1  0.36282711  0.36282711  0.35208327  1.0
  Ni  Ni365  1  0.36282711  0.69616044  0.35208327  1.0
  Ni  Ni366  1  0.69616044  0.02949378  0.35208327  1.0
  Ni  Ni367  1  0.69616044  0.36282711  0.35208327  1.0
  Ni  Ni368  1  0.69616044  0.69616044  0.35208327  1.0
  Ni  Ni369  1  0.02949378  0.24485200  0.35208327  1.0
  Ni  Ni370  1  0.02949378  0.57818533  0.35208327  1.0
  Ni  Ni371  1  0.02949378  0.91151867  0.35208327  1.0
  Ni  Ni372  1  0.36282711  0.24485200  0.35208327  1.0
  Ni  Ni373  1  0.36282711  0.57818533  0.35208327  1.0
  Ni  Ni374  1  0.36282711  0.91151867  0.35208327  1.0
  Ni  Ni375  1  0.69616044  0.24485200  0.35208327  1.0
  Ni  Ni376  1  0.69616044  0.57818533  0.35208327  1.0
  Ni  Ni377  1  0.69616044  0.91151867  0.35208327  1.0
  Ni  Ni378  1  0.24485200  0.02949378  0.22286833  1.0
  Ni  Ni379  1  0.24485200  0.36282711  0.22286833  1.0
  Ni  Ni380  1  0.24485200  0.69616044  0.22286833  1.0
  Ni  Ni381  1  0.57818533  0.02949378  0.22286833  1.0
  Ni  Ni382  1  0.57818533  0.36282711  0.22286833  1.0
  Ni  Ni383  1  0.57818533  0.69616044  0.22286833  1.0
  Ni  Ni384  1  0.91151867  0.02949378  0.22286833  1.0
  Ni  Ni385  1  0.91151867  0.36282711  0.22286833  1.0
  Ni  Ni386  1  0.91151867  0.69616044  0.22286833  1.0
  Ni  Ni387  1  0.02949378  0.02949378  0.22286833  1.0
  Ni  Ni388  1  0.02949378  0.36282711  0.22286833  1.0
  Ni  Ni389  1  0.02949378  0.69616044  0.22286833  1.0
  Ni  Ni390  1  0.36282711  0.02949378  0.22286833  1.0
  Ni  Ni391  1  0.36282711  0.36282711  0.22286833  1.0
  Ni  Ni392  1  0.36282711  0.69616044  0.22286833  1.0
  Ni  Ni393  1  0.69616044  0.02949378  0.22286833  1.0
  Ni  Ni394  1  0.69616044  0.36282711  0.22286833  1.0
  Ni  Ni395  1  0.69616044  0.69616044  0.22286833  1.0
  Ni  Ni396  1  0.22050622  0.22050622  0.32286833  1.0
  Ni  Ni397  1  0.22050622  0.55383956  0.32286833  1.0
  Ni  Ni398  1  0.22050622  0.88717289  0.32286833  1.0
  Ni  Ni399  1  0.55383956  0.22050622  0.32286833  1.0
  Ni  Ni400  1  0.55383956  0.55383956  0.32286833  1.0
  Ni  Ni401  1  0.55383956  0.88717289  0.32286833  1.0
  Ni  Ni402  1  0.88717289  0.22050622  0.32286833  1.0
  Ni  Ni403  1  0.88717289  0.55383956  0.32286833  1.0
  Ni  Ni404  1  0.88717289  0.88717289  0.32286833  1.0
  Ni  Ni405  1  0.22050622  0.00514800  0.32286833  1.0
  Ni  Ni406  1  0.22050622  0.33848133  0.32286833  1.0
  Ni  Ni407  1  0.22050622  0.67181467  0.32286833  1.0
  Ni  Ni408  1  0.55383956  0.00514800  0.32286833  1.0
  Ni  Ni409  1  0.55383956  0.33848133  0.32286833  1.0
  Ni  Ni410  1  0.55383956  0.67181467  0.32286833  1.0
  Ni  Ni411  1  0.88717289  0.00514800  0.32286833  1.0
  Ni  Ni412  1  0.88717289  0.33848133  0.32286833  1.0
  Ni  Ni413  1  0.88717289  0.67181467  0.32286833  1.0
  Ni  Ni414  1  0.00514800  0.22050622  0.25208327  1.0
  Ni  Ni415  1  0.00514800  0.55383956  0.25208327  1.0
  Ni  Ni416  1  0.00514800  0.88717289  0.25208327  1.0
  Ni  Ni417  1  0.33848133  0.22050622  0.25208327  1.0
  Ni  Ni418  1  0.33848133  0.55383956  0.25208327  1.0
  Ni  Ni419  1  0.33848133  0.88717289  0.25208327  1.0
  Ni  Ni420  1  0.67181467  0.22050622  0.25208327  1.0
  Ni  Ni421  1  0.67181467  0.55383956  0.25208327  1.0
  Ni  Ni422  1  0.67181467  0.88717289  0.25208327  1.0
  Ni  Ni423  1  0.22050622  0.22050622  0.25208327  1.0
  Ni  Ni424  1  0.22050622  0.55383956  0.25208327  1.0
  Ni  Ni425  1  0.22050622  0.88717289  0.25208327  1.0
  Ni  Ni426  1  0.55383956  0.22050622  0.25208327  1.0
  Ni  Ni427  1  0.55383956  0.55383956  0.25208327  1.0
  Ni  Ni428  1  0.55383956  0.88717289  0.25208327  1.0
  Ni  Ni429  1  0.88717289  0.22050622  0.25208327  1.0
  Ni  Ni430  1  0.88717289  0.55383956  0.25208327  1.0
  Ni  Ni431  1  0.88717289  0.88717289  0.25208327  1.0
