# generated using pymatgen
data_Ti3Ni
_symmetry_space_group_name_H-M   'P 1'
_cell_length_a   21.43458798
_cell_length_b   31.51673244
_cell_length_c   30.26571326
_cell_angle_alpha   81.64576669
_cell_angle_beta   86.52134794
_cell_angle_gamma   72.07746574
_symmetry_Int_Tables_number   1
_chemical_formula_structural   Ti3Ni
_chemical_formula_sum   'Ti432 Ni144'
_cell_volume   19244.57795562
_cell_formula_units_Z   144
loop_
 _symmetry_equiv_pos_site_id
 _symmetry_equiv_pos_as_xyz
  1  'x, y, z'
loop_
 _atom_site_type_symbol
 _atom_site_label
 _atom_site_symmetry_multiplicity
 _atom_site_fract_x
 _atom_site_fract_y
 _atom_site_fract_z
 _atom_site_occupancy
  Ni  Ni0  1  0.01543210  0.10185185  0.00462963  1.0
  Ni  Ni1  1  0.01543210  0.43518519  0.00462963  1.0
  Ni  Ni2  1  0.01543210  0.76851852  0.00462963  1.0
  Ni  Ni3  1  0.34876543  0.10185185  0.00462963  1.0
  Ni  Ni4  1  0.34876543  0.43518519  0.00462963  1.0
  Ni  Ni5  1  0.34876543  0.76851852  0.00462963  1.0
  Ni  Ni6  1  0.68209877  0.10185185  0.00462963  1.0
  Ni  Ni7  1  0.68209877  0.43518519  0.00462963  1.0
  Ni  Ni8  1  0.68209877  0.76851852  0.00462963  1.0
  Ni  Ni9  1  0.20061728  0.32407407  0.06018519  1.0
  Ni  Ni10  1  0.20061728  0.65740741  0.06018519  1.0
  Ni  Ni11  1  0.20061728  0.99074074  0.06018519  1.0
  Ni  Ni12  1  0.53395062  0.32407407  0.06018519  1.0
  Ni  Ni13  1  0.53395062  0.65740741  0.06018519  1.0
  Ni  Ni14  1  0.53395062  0.99074074  0.06018519  1.0
  Ni  Ni15  1  0.86728395  0.32407407  0.06018519  1.0
  Ni  Ni16  1  0.86728395  0.65740741  0.06018519  1.0
  Ni  Ni17  1  0.86728395  0.99074074  0.06018519  1.0
  Ni  Ni18  1  0.02160494  0.00925926  0.10648148  1.0
  Ni  Ni19  1  0.02160494  0.34259259  0.10648148  1.0
  Ni  Ni20  1  0.02160494  0.67592593  0.10648148  1.0
  Ni  Ni21  1  0.35493827  0.00925926  0.10648148  1.0
  Ni  Ni22  1  0.35493827  0.34259259  0.10648148  1.0
  Ni  Ni23  1  0.35493827  0.67592593  0.10648148  1.0
  Ni  Ni24  1  0.68827160  0.00925926  0.10648148  1.0
  Ni  Ni25  1  0.68827160  0.34259259  0.10648148  1.0
  Ni  Ni26  1  0.68827160  0.67592593  0.10648148  1.0
  Ni  Ni27  1  0.16975309  0.12037037  0.05092593  1.0
  Ni  Ni28  1  0.16975309  0.45370370  0.05092593  1.0
  Ni  Ni29  1  0.16975309  0.78703704  0.05092593  1.0
  Ni  Ni30  1  0.50308642  0.12037037  0.05092593  1.0
  Ni  Ni31  1  0.50308642  0.45370370  0.05092593  1.0
  Ni  Ni32  1  0.50308642  0.78703704  0.05092593  1.0
  Ni  Ni33  1  0.83641975  0.12037037  0.05092593  1.0
  Ni  Ni34  1  0.83641975  0.45370370  0.05092593  1.0
  Ni  Ni35  1  0.83641975  0.78703704  0.05092593  1.0
  Ni  Ni36  1  0.05246914  0.21296296  0.11574074  1.0
  Ni  Ni37  1  0.05246914  0.54629630  0.11574074  1.0
  Ni  Ni38  1  0.05246914  0.87962963  0.11574074  1.0
  Ni  Ni39  1  0.38580247  0.21296296  0.11574074  1.0
  Ni  Ni40  1  0.38580247  0.54629630  0.11574074  1.0
  Ni  Ni41  1  0.38580247  0.87962963  0.11574074  1.0
  Ni  Ni42  1  0.71913580  0.21296296  0.11574074  1.0
  Ni  Ni43  1  0.71913580  0.54629630  0.11574074  1.0
  Ni  Ni44  1  0.71913580  0.87962963  0.11574074  1.0
  Ni  Ni45  1  0.23765432  0.10185185  0.17129630  1.0
  Ni  Ni46  1  0.23765432  0.43518519  0.17129630  1.0
  Ni  Ni47  1  0.23765432  0.76851852  0.17129630  1.0
  Ni  Ni48  1  0.57098765  0.10185185  0.17129630  1.0
  Ni  Ni49  1  0.57098765  0.43518519  0.17129630  1.0
  Ni  Ni50  1  0.57098765  0.76851852  0.17129630  1.0
  Ni  Ni51  1  0.90432099  0.10185185  0.17129630  1.0
  Ni  Ni52  1  0.90432099  0.43518519  0.17129630  1.0
  Ni  Ni53  1  0.90432099  0.76851852  0.17129630  1.0
  Ni  Ni54  1  0.05864198  0.12037037  0.21759259  1.0
  Ni  Ni55  1  0.05864198  0.45370370  0.21759259  1.0
  Ni  Ni56  1  0.05864198  0.78703704  0.21759259  1.0
  Ni  Ni57  1  0.39197531  0.12037037  0.21759259  1.0
  Ni  Ni58  1  0.39197531  0.45370370  0.21759259  1.0
  Ni  Ni59  1  0.39197531  0.78703704  0.21759259  1.0
  Ni  Ni60  1  0.72530864  0.12037037  0.21759259  1.0
  Ni  Ni61  1  0.72530864  0.45370370  0.21759259  1.0
  Ni  Ni62  1  0.72530864  0.78703704  0.21759259  1.0
  Ni  Ni63  1  0.20679012  0.23148148  0.16203704  1.0
  Ni  Ni64  1  0.20679012  0.56481481  0.16203704  1.0
  Ni  Ni65  1  0.20679012  0.89814815  0.16203704  1.0
  Ni  Ni66  1  0.54012346  0.23148148  0.16203704  1.0
  Ni  Ni67  1  0.54012346  0.56481481  0.16203704  1.0
  Ni  Ni68  1  0.54012346  0.89814815  0.16203704  1.0
  Ni  Ni69  1  0.87345679  0.23148148  0.16203704  1.0
  Ni  Ni70  1  0.87345679  0.56481481  0.16203704  1.0
  Ni  Ni71  1  0.87345679  0.89814815  0.16203704  1.0
  Ni  Ni72  1  0.08950617  0.32407407  0.22685185  1.0
  Ni  Ni73  1  0.08950617  0.65740741  0.22685185  1.0
  Ni  Ni74  1  0.08950617  0.99074074  0.22685185  1.0
  Ni  Ni75  1  0.42283951  0.32407407  0.22685185  1.0
  Ni  Ni76  1  0.42283951  0.65740741  0.22685185  1.0
  Ni  Ni77  1  0.42283951  0.99074074  0.22685185  1.0
  Ni  Ni78  1  0.75617284  0.32407407  0.22685185  1.0
  Ni  Ni79  1  0.75617284  0.65740741  0.22685185  1.0
  Ni  Ni80  1  0.75617284  0.99074074  0.22685185  1.0
  Ni  Ni81  1  0.27469136  0.21296296  0.28240741  1.0
  Ni  Ni82  1  0.27469136  0.54629630  0.28240741  1.0
  Ni  Ni83  1  0.27469136  0.87962963  0.28240741  1.0
  Ni  Ni84  1  0.60802469  0.21296296  0.28240741  1.0
  Ni  Ni85  1  0.60802469  0.54629630  0.28240741  1.0
  Ni  Ni86  1  0.60802469  0.87962963  0.28240741  1.0
  Ni  Ni87  1  0.94135802  0.21296296  0.28240741  1.0
  Ni  Ni88  1  0.94135802  0.54629630  0.28240741  1.0
  Ni  Ni89  1  0.94135802  0.87962963  0.28240741  1.0
  Ni  Ni90  1  0.09567901  0.23148148  0.32870370  1.0
  Ni  Ni91  1  0.09567901  0.56481481  0.32870370  1.0
  Ni  Ni92  1  0.09567901  0.89814815  0.32870370  1.0
  Ni  Ni93  1  0.42901235  0.23148148  0.32870370  1.0
  Ni  Ni94  1  0.42901235  0.56481481  0.32870370  1.0
  Ni  Ni95  1  0.42901235  0.89814815  0.32870370  1.0
  Ni  Ni96  1  0.76234568  0.23148148  0.32870370  1.0
  Ni  Ni97  1  0.76234568  0.56481481  0.32870370  1.0
  Ni  Ni98  1  0.76234568  0.89814815  0.32870370  1.0
  Ni  Ni99  1  0.24382716  0.00925926  0.27314815  1.0
  Ni  Ni100  1  0.24382716  0.34259259  0.27314815  1.0
  Ni  Ni101  1  0.24382716  0.67592593  0.27314815  1.0
  Ni  Ni102  1  0.57716049  0.00925926  0.27314815  1.0
  Ni  Ni103  1  0.57716049  0.34259259  0.27314815  1.0
  Ni  Ni104  1  0.57716049  0.67592593  0.27314815  1.0
  Ni  Ni105  1  0.91049383  0.00925926  0.27314815  1.0
  Ni  Ni106  1  0.91049383  0.34259259  0.27314815  1.0
  Ni  Ni107  1  0.91049383  0.67592593  0.27314815  1.0
  Ni  Ni108  1  0.12654321  0.10185185  0.33796296  1.0
  Ni  Ni109  1  0.12654321  0.43518519  0.33796296  1.0
  Ni  Ni110  1  0.12654321  0.76851852  0.33796296  1.0
  Ni  Ni111  1  0.45987654  0.10185185  0.33796296  1.0
  Ni  Ni112  1  0.45987654  0.43518519  0.33796296  1.0
  Ni  Ni113  1  0.45987654  0.76851852  0.33796296  1.0
  Ni  Ni114  1  0.79320988  0.10185185  0.33796296  1.0
  Ni  Ni115  1  0.79320988  0.43518519  0.33796296  1.0
  Ni  Ni116  1  0.79320988  0.76851852  0.33796296  1.0
  Ni  Ni117  1  0.31172840  0.32407407  0.39351852  1.0
  Ni  Ni118  1  0.31172840  0.65740741  0.39351852  1.0
  Ni  Ni119  1  0.31172840  0.99074074  0.39351852  1.0
  Ni  Ni120  1  0.64506173  0.32407407  0.39351852  1.0
  Ni  Ni121  1  0.64506173  0.65740741  0.39351852  1.0
  Ni  Ni122  1  0.64506173  0.99074074  0.39351852  1.0
  Ni  Ni123  1  0.97839506  0.32407407  0.39351852  1.0
  Ni  Ni124  1  0.97839506  0.65740741  0.39351852  1.0
  Ni  Ni125  1  0.97839506  0.99074074  0.39351852  1.0
  Ni  Ni126  1  0.13271605  0.00925926  0.43981481  1.0
  Ni  Ni127  1  0.13271605  0.34259259  0.43981481  1.0
  Ni  Ni128  1  0.13271605  0.67592593  0.43981481  1.0
  Ni  Ni129  1  0.46604938  0.00925926  0.43981481  1.0
  Ni  Ni130  1  0.46604938  0.34259259  0.43981481  1.0
  Ni  Ni131  1  0.46604938  0.67592593  0.43981481  1.0
  Ni  Ni132  1  0.79938272  0.00925926  0.43981481  1.0
  Ni  Ni133  1  0.79938272  0.34259259  0.43981481  1.0
  Ni  Ni134  1  0.79938272  0.67592593  0.43981481  1.0
  Ni  Ni135  1  0.28086420  0.12037037  0.38425926  1.0
  Ni  Ni136  1  0.28086420  0.45370370  0.38425926  1.0
  Ni  Ni137  1  0.28086420  0.78703704  0.38425926  1.0
  Ni  Ni138  1  0.61419753  0.12037037  0.38425926  1.0
  Ni  Ni139  1  0.61419753  0.45370370  0.38425926  1.0
  Ni  Ni140  1  0.61419753  0.78703704  0.38425926  1.0
  Ni  Ni141  1  0.94753086  0.12037037  0.38425926  1.0
  Ni  Ni142  1  0.94753086  0.45370370  0.38425926  1.0
  Ni  Ni143  1  0.94753086  0.78703704  0.38425926  1.0
  Ti  Ti144  1  0.12607122  0.26922650  0.08973292  1.0
  Ti  Ti145  1  0.12607122  0.60255983  0.08973292  1.0
  Ti  Ti146  1  0.12607122  0.93589317  0.08973292  1.0
  Ti  Ti147  1  0.45940456  0.26922650  0.08973292  1.0
  Ti  Ti148  1  0.45940456  0.60255983  0.08973292  1.0
  Ti  Ti149  1  0.45940456  0.93589317  0.08973292  1.0
  Ti  Ti150  1  0.79273789  0.26922650  0.08973292  1.0
  Ti  Ti151  1  0.79273789  0.60255983  0.08973292  1.0
  Ti  Ti152  1  0.79273789  0.93589317  0.08973292  1.0
  Ti  Ti153  1  0.27421937  0.04700428  0.03417736  1.0
  Ti  Ti154  1  0.27421937  0.38033761  0.03417736  1.0
  Ti  Ti155  1  0.27421937  0.71367094  0.03417736  1.0
  Ti  Ti156  1  0.60755270  0.04700428  0.03417736  1.0
  Ti  Ti157  1  0.60755270  0.38033761  0.03417736  1.0
  Ti  Ti158  1  0.60755270  0.71367094  0.03417736  1.0
  Ti  Ti159  1  0.94088604  0.04700428  0.03417736  1.0
  Ti  Ti160  1  0.94088604  0.38033761  0.03417736  1.0
  Ti  Ti161  1  0.94088604  0.71367094  0.03417736  1.0
  Ti  Ti162  1  0.00143446  0.28632906  0.05234189  1.0
  Ti  Ti163  1  0.00143446  0.61966239  0.05234189  1.0
  Ti  Ti164  1  0.00143446  0.95299572  0.05234189  1.0
  Ti  Ti165  1  0.33476780  0.28632906  0.05234189  1.0
  Ti  Ti166  1  0.33476780  0.61966239  0.05234189  1.0
  Ti  Ti167  1  0.33476780  0.95299572  0.05234189  1.0
  Ti  Ti168  1  0.66810113  0.28632906  0.05234189  1.0
  Ti  Ti169  1  0.66810113  0.61966239  0.05234189  1.0
  Ti  Ti170  1  0.66810113  0.95299572  0.05234189  1.0
  Ti  Ti171  1  0.18661965  0.17521794  0.10789744  1.0
  Ti  Ti172  1  0.18661965  0.50855128  0.10789744  1.0
  Ti  Ti173  1  0.18661965  0.84188461  0.10789744  1.0
  Ti  Ti174  1  0.51995298  0.17521794  0.10789744  1.0
  Ti  Ti175  1  0.51995298  0.50855128  0.10789744  1.0
  Ti  Ti176  1  0.51995298  0.84188461  0.10789744  1.0
  Ti  Ti177  1  0.85328631  0.17521794  0.10789744  1.0
  Ti  Ti178  1  0.85328631  0.50855128  0.10789744  1.0
  Ti  Ti179  1  0.85328631  0.84188461  0.10789744  1.0
  Ti  Ti180  1  0.26352565  0.23289744  0.07905769  1.0
  Ti  Ti181  1  0.26352565  0.56623078  0.07905769  1.0
  Ti  Ti182  1  0.26352565  0.89956411  0.07905769  1.0
  Ti  Ti183  1  0.59685898  0.23289744  0.07905769  1.0
  Ti  Ti184  1  0.59685898  0.56623078  0.07905769  1.0
  Ti  Ti185  1  0.59685898  0.89956411  0.07905769  1.0
  Ti  Ti186  1  0.93019231  0.23289744  0.07905769  1.0
  Ti  Ti187  1  0.93019231  0.56623078  0.07905769  1.0
  Ti  Ti188  1  0.93019231  0.89956411  0.07905769  1.0
  Ti  Ti189  1  0.07834046  0.01067522  0.02350214  1.0
  Ti  Ti190  1  0.07834046  0.34400856  0.02350214  1.0
  Ti  Ti191  1  0.07834046  0.67734189  0.02350214  1.0
  Ti  Ti192  1  0.41167380  0.01067522  0.02350214  1.0
  Ti  Ti193  1  0.41167380  0.34400856  0.02350214  1.0
  Ti  Ti194  1  0.41167380  0.67734189  0.02350214  1.0
  Ti  Ti195  1  0.74500713  0.01067522  0.02350214  1.0
  Ti  Ti196  1  0.74500713  0.34400856  0.02350214  1.0
  Ti  Ti197  1  0.74500713  0.67734189  0.02350214  1.0
  Ti  Ti198  1  0.24429915  0.17521794  0.02137819  1.0
  Ti  Ti199  1  0.24429915  0.50855128  0.02137819  1.0
  Ti  Ti200  1  0.24429915  0.84188461  0.02137819  1.0
  Ti  Ti201  1  0.57763248  0.17521794  0.02137819  1.0
  Ti  Ti202  1  0.57763248  0.50855128  0.02137819  1.0
  Ti  Ti203  1  0.57763248  0.84188461  0.02137819  1.0
  Ti  Ti204  1  0.91096581  0.17521794  0.02137819  1.0
  Ti  Ti205  1  0.91096581  0.50855128  0.02137819  1.0
  Ti  Ti206  1  0.91096581  0.84188461  0.02137819  1.0
  Ti  Ti207  1  0.09615100  0.06410683  0.07693375  1.0
  Ti  Ti208  1  0.09615100  0.39744017  0.07693375  1.0
  Ti  Ti209  1  0.09615100  0.73077350  0.07693375  1.0
  Ti  Ti210  1  0.42948433  0.06410683  0.07693375  1.0
  Ti  Ti211  1  0.42948433  0.39744017  0.07693375  1.0
  Ti  Ti212  1  0.42948433  0.73077350  0.07693375  1.0
  Ti  Ti213  1  0.76281767  0.06410683  0.07693375  1.0
  Ti  Ti214  1  0.76281767  0.39744017  0.07693375  1.0
  Ti  Ti215  1  0.76281767  0.73077350  0.07693375  1.0
  Ti  Ti216  1  0.03560257  0.15811539  0.05876922  1.0
  Ti  Ti217  1  0.03560257  0.49144872  0.05876922  1.0
  Ti  Ti218  1  0.03560257  0.82478206  0.05876922  1.0
  Ti  Ti219  1  0.36893591  0.15811539  0.05876922  1.0
  Ti  Ti220  1  0.36893591  0.49144872  0.05876922  1.0
  Ti  Ti221  1  0.36893591  0.82478206  0.05876922  1.0
  Ti  Ti222  1  0.70226924  0.15811539  0.05876922  1.0
  Ti  Ti223  1  0.70226924  0.49144872  0.05876922  1.0
  Ti  Ti224  1  0.70226924  0.82478206  0.05876922  1.0
  Ti  Ti225  1  0.18375072  0.26922650  0.00321367  1.0
  Ti  Ti226  1  0.18375072  0.60255983  0.00321367  1.0
  Ti  Ti227  1  0.18375072  0.93589317  0.00321367  1.0
  Ti  Ti228  1  0.51708406  0.26922650  0.00321367  1.0
  Ti  Ti229  1  0.51708406  0.60255983  0.00321367  1.0
  Ti  Ti230  1  0.51708406  0.93589317  0.00321367  1.0
  Ti  Ti231  1  0.85041739  0.26922650  0.00321367  1.0
  Ti  Ti232  1  0.85041739  0.60255983  0.00321367  1.0
  Ti  Ti233  1  0.85041739  0.93589317  0.00321367  1.0
  Ti  Ti234  1  0.10684472  0.21154700  0.03205342  1.0
  Ti  Ti235  1  0.10684472  0.54488033  0.03205342  1.0
  Ti  Ti236  1  0.10684472  0.87821367  0.03205342  1.0
  Ti  Ti237  1  0.44017806  0.21154700  0.03205342  1.0
  Ti  Ti238  1  0.44017806  0.54488033  0.03205342  1.0
  Ti  Ti239  1  0.44017806  0.87821367  0.03205342  1.0
  Ti  Ti240  1  0.77351139  0.21154700  0.03205342  1.0
  Ti  Ti241  1  0.77351139  0.54488033  0.03205342  1.0
  Ti  Ti242  1  0.77351139  0.87821367  0.03205342  1.0
  Ti  Ti243  1  0.29202991  0.10043589  0.08760897  1.0
  Ti  Ti244  1  0.29202991  0.43376922  0.08760897  1.0
  Ti  Ti245  1  0.29202991  0.76710256  0.08760897  1.0
  Ti  Ti246  1  0.62536324  0.10043589  0.08760897  1.0
  Ti  Ti247  1  0.62536324  0.43376922  0.08760897  1.0
  Ti  Ti248  1  0.62536324  0.76710256  0.08760897  1.0
  Ti  Ti249  1  0.95869657  0.10043589  0.08760897  1.0
  Ti  Ti250  1  0.95869657  0.43376922  0.08760897  1.0
  Ti  Ti251  1  0.95869657  0.76710256  0.08760897  1.0
  Ti  Ti252  1  0.16310826  0.04700428  0.20084403  1.0
  Ti  Ti253  1  0.16310826  0.38033761  0.20084403  1.0
  Ti  Ti254  1  0.16310826  0.71367094  0.20084403  1.0
  Ti  Ti255  1  0.49644159  0.04700428  0.20084403  1.0
  Ti  Ti256  1  0.49644159  0.38033761  0.20084403  1.0
  Ti  Ti257  1  0.49644159  0.71367094  0.20084403  1.0
  Ti  Ti258  1  0.82977493  0.04700428  0.20084403  1.0
  Ti  Ti259  1  0.82977493  0.38033761  0.20084403  1.0
  Ti  Ti260  1  0.82977493  0.71367094  0.20084403  1.0
  Ti  Ti261  1  0.31125641  0.15811539  0.14528847  1.0
  Ti  Ti262  1  0.31125641  0.49144872  0.14528847  1.0
  Ti  Ti263  1  0.31125641  0.82478206  0.14528847  1.0
  Ti  Ti264  1  0.64458974  0.15811539  0.14528847  1.0
  Ti  Ti265  1  0.64458974  0.49144872  0.14528847  1.0
  Ti  Ti266  1  0.64458974  0.82478206  0.14528847  1.0
  Ti  Ti267  1  0.97792307  0.15811539  0.14528847  1.0
  Ti  Ti268  1  0.97792307  0.49144872  0.14528847  1.0
  Ti  Ti269  1  0.97792307  0.82478206  0.14528847  1.0
  Ti  Ti270  1  0.03847150  0.06410683  0.16345300  1.0
  Ti  Ti271  1  0.03847150  0.39744017  0.16345300  1.0
  Ti  Ti272  1  0.03847150  0.73077350  0.16345300  1.0
  Ti  Ti273  1  0.37180483  0.06410683  0.16345300  1.0
  Ti  Ti274  1  0.37180483  0.39744017  0.16345300  1.0
  Ti  Ti275  1  0.37180483  0.73077350  0.16345300  1.0
  Ti  Ti276  1  0.70513817  0.06410683  0.16345300  1.0
  Ti  Ti277  1  0.70513817  0.39744017  0.16345300  1.0
  Ti  Ti278  1  0.70513817  0.73077350  0.16345300  1.0
  Ti  Ti279  1  0.22365669  0.28632906  0.21900856  1.0
  Ti  Ti280  1  0.22365669  0.61966239  0.21900856  1.0
  Ti  Ti281  1  0.22365669  0.95299572  0.21900856  1.0
  Ti  Ti282  1  0.55699002  0.28632906  0.21900856  1.0
  Ti  Ti283  1  0.55699002  0.61966239  0.21900856  1.0
  Ti  Ti284  1  0.55699002  0.95299572  0.21900856  1.0
  Ti  Ti285  1  0.89032335  0.28632906  0.21900856  1.0
  Ti  Ti286  1  0.89032335  0.61966239  0.21900856  1.0
  Ti  Ti287  1  0.89032335  0.95299572  0.21900856  1.0
  Ti  Ti288  1  0.30056269  0.01067522  0.19016881  1.0
  Ti  Ti289  1  0.30056269  0.34400856  0.19016881  1.0
  Ti  Ti290  1  0.30056269  0.67734189  0.19016881  1.0
  Ti  Ti291  1  0.63389602  0.01067522  0.19016881  1.0
  Ti  Ti292  1  0.63389602  0.34400856  0.19016881  1.0
  Ti  Ti293  1  0.63389602  0.67734189  0.19016881  1.0
  Ti  Ti294  1  0.96722935  0.01067522  0.19016881  1.0
  Ti  Ti295  1  0.96722935  0.34400856  0.19016881  1.0
  Ti  Ti296  1  0.96722935  0.67734189  0.19016881  1.0
  Ti  Ti297  1  0.11537750  0.12178633  0.13461325  1.0
  Ti  Ti298  1  0.11537750  0.45511967  0.13461325  1.0
  Ti  Ti299  1  0.11537750  0.78845300  0.13461325  1.0
  Ti  Ti300  1  0.44871083  0.12178633  0.13461325  1.0
  Ti  Ti301  1  0.44871083  0.45511967  0.13461325  1.0
  Ti  Ti302  1  0.44871083  0.78845300  0.13461325  1.0
  Ti  Ti303  1  0.78204417  0.12178633  0.13461325  1.0
  Ti  Ti304  1  0.78204417  0.45511967  0.13461325  1.0
  Ti  Ti305  1  0.78204417  0.78845300  0.13461325  1.0
  Ti  Ti306  1  0.28133619  0.28632906  0.13248931  1.0
  Ti  Ti307  1  0.28133619  0.61966239  0.13248931  1.0
  Ti  Ti308  1  0.28133619  0.95299572  0.13248931  1.0
  Ti  Ti309  1  0.61466952  0.28632906  0.13248931  1.0
  Ti  Ti310  1  0.61466952  0.61966239  0.13248931  1.0
  Ti  Ti311  1  0.61466952  0.95299572  0.13248931  1.0
  Ti  Ti312  1  0.94800285  0.28632906  0.13248931  1.0
  Ti  Ti313  1  0.94800285  0.61966239  0.13248931  1.0
  Ti  Ti314  1  0.94800285  0.95299572  0.13248931  1.0
  Ti  Ti315  1  0.13318804  0.17521794  0.18804486  1.0
  Ti  Ti316  1  0.13318804  0.50855128  0.18804486  1.0
  Ti  Ti317  1  0.13318804  0.84188461  0.18804486  1.0
  Ti  Ti318  1  0.46652137  0.17521794  0.18804486  1.0
  Ti  Ti319  1  0.46652137  0.50855128  0.18804486  1.0
  Ti  Ti320  1  0.46652137  0.84188461  0.18804486  1.0
  Ti  Ti321  1  0.79985470  0.17521794  0.18804486  1.0
  Ti  Ti322  1  0.79985470  0.50855128  0.18804486  1.0
  Ti  Ti323  1  0.79985470  0.84188461  0.18804486  1.0
  Ti  Ti324  1  0.07263961  0.26922650  0.16988033  1.0
  Ti  Ti325  1  0.07263961  0.60255983  0.16988033  1.0
  Ti  Ti326  1  0.07263961  0.93589317  0.16988033  1.0
  Ti  Ti327  1  0.40597294  0.26922650  0.16988033  1.0
  Ti  Ti328  1  0.40597294  0.60255983  0.16988033  1.0
  Ti  Ti329  1  0.40597294  0.93589317  0.16988033  1.0
  Ti  Ti330  1  0.73930628  0.26922650  0.16988033  1.0
  Ti  Ti331  1  0.73930628  0.60255983  0.16988033  1.0
  Ti  Ti332  1  0.73930628  0.93589317  0.16988033  1.0
  Ti  Ti333  1  0.22078776  0.04700428  0.11432478  1.0
  Ti  Ti334  1  0.22078776  0.38033761  0.11432478  1.0
  Ti  Ti335  1  0.22078776  0.71367094  0.11432478  1.0
  Ti  Ti336  1  0.55412109  0.04700428  0.11432478  1.0
  Ti  Ti337  1  0.55412109  0.38033761  0.11432478  1.0
  Ti  Ti338  1  0.55412109  0.71367094  0.11432478  1.0
  Ti  Ti339  1  0.88745443  0.04700428  0.11432478  1.0
  Ti  Ti340  1  0.88745443  0.38033761  0.11432478  1.0
  Ti  Ti341  1  0.88745443  0.71367094  0.11432478  1.0
  Ti  Ti342  1  0.14388176  0.32265811  0.14316453  1.0
  Ti  Ti343  1  0.14388176  0.65599144  0.14316453  1.0
  Ti  Ti344  1  0.14388176  0.98932478  0.14316453  1.0
  Ti  Ti345  1  0.47721509  0.32265811  0.14316453  1.0
  Ti  Ti346  1  0.47721509  0.65599144  0.14316453  1.0
  Ti  Ti347  1  0.47721509  0.98932478  0.14316453  1.0
  Ti  Ti348  1  0.81054843  0.32265811  0.14316453  1.0
  Ti  Ti349  1  0.81054843  0.65599144  0.14316453  1.0
  Ti  Ti350  1  0.81054843  0.98932478  0.14316453  1.0
  Ti  Ti351  1  0.32906694  0.21154700  0.19872008  1.0
  Ti  Ti352  1  0.32906694  0.54488033  0.19872008  1.0
  Ti  Ti353  1  0.32906694  0.87821367  0.19872008  1.0
  Ti  Ti354  1  0.66240028  0.21154700  0.19872008  1.0
  Ti  Ti355  1  0.66240028  0.54488033  0.19872008  1.0
  Ti  Ti356  1  0.66240028  0.87821367  0.19872008  1.0
  Ti  Ti357  1  0.99573361  0.21154700  0.19872008  1.0
  Ti  Ti358  1  0.99573361  0.54488033  0.19872008  1.0
  Ti  Ti359  1  0.99573361  0.87821367  0.19872008  1.0
  Ti  Ti360  1  0.20014530  0.15811539  0.31195514  1.0
  Ti  Ti361  1  0.20014530  0.49144872  0.31195514  1.0
  Ti  Ti362  1  0.20014530  0.82478206  0.31195514  1.0
  Ti  Ti363  1  0.53347863  0.15811539  0.31195514  1.0
  Ti  Ti364  1  0.53347863  0.49144872  0.31195514  1.0
  Ti  Ti365  1  0.53347863  0.82478206  0.31195514  1.0
  Ti  Ti366  1  0.86681196  0.15811539  0.31195514  1.0
  Ti  Ti367  1  0.86681196  0.49144872  0.31195514  1.0
  Ti  Ti368  1  0.86681196  0.82478206  0.31195514  1.0
  Ti  Ti369  1  0.01496011  0.26922650  0.25639958  1.0
  Ti  Ti370  1  0.01496011  0.60255983  0.25639958  1.0
  Ti  Ti371  1  0.01496011  0.93589317  0.25639958  1.0
  Ti  Ti372  1  0.34829344  0.26922650  0.25639958  1.0
  Ti  Ti373  1  0.34829344  0.60255983  0.25639958  1.0
  Ti  Ti374  1  0.34829344  0.93589317  0.25639958  1.0
  Ti  Ti375  1  0.68162678  0.26922650  0.25639958  1.0
  Ti  Ti376  1  0.68162678  0.60255983  0.25639958  1.0
  Ti  Ti377  1  0.68162678  0.93589317  0.25639958  1.0
  Ti  Ti378  1  0.07550854  0.17521794  0.27456411  1.0
  Ti  Ti379  1  0.07550854  0.50855128  0.27456411  1.0
  Ti  Ti380  1  0.07550854  0.84188461  0.27456411  1.0
  Ti  Ti381  1  0.40884187  0.17521794  0.27456411  1.0
  Ti  Ti382  1  0.40884187  0.50855128  0.27456411  1.0
  Ti  Ti383  1  0.40884187  0.84188461  0.27456411  1.0
  Ti  Ti384  1  0.74217520  0.17521794  0.27456411  1.0
  Ti  Ti385  1  0.74217520  0.50855128  0.27456411  1.0
  Ti  Ti386  1  0.74217520  0.84188461  0.27456411  1.0
  Ti  Ti387  1  0.26069372  0.06410683  0.33011967  1.0
  Ti  Ti388  1  0.26069372  0.39744017  0.33011967  1.0
  Ti  Ti389  1  0.26069372  0.73077350  0.33011967  1.0
  Ti  Ti390  1  0.59402706  0.06410683  0.33011967  1.0
  Ti  Ti391  1  0.59402706  0.39744017  0.33011967  1.0
  Ti  Ti392  1  0.59402706  0.73077350  0.33011967  1.0
  Ti  Ti393  1  0.92736039  0.06410683  0.33011967  1.0
  Ti  Ti394  1  0.92736039  0.39744017  0.33011967  1.0
  Ti  Ti395  1  0.92736039  0.73077350  0.33011967  1.0
  Ti  Ti396  1  0.00426639  0.12178633  0.30127992  1.0
  Ti  Ti397  1  0.00426639  0.45511967  0.30127992  1.0
  Ti  Ti398  1  0.00426639  0.78845300  0.30127992  1.0
  Ti  Ti399  1  0.33759972  0.12178633  0.30127992  1.0
  Ti  Ti400  1  0.33759972  0.45511967  0.30127992  1.0
  Ti  Ti401  1  0.33759972  0.78845300  0.30127992  1.0
  Ti  Ti402  1  0.67093306  0.12178633  0.30127992  1.0
  Ti  Ti403  1  0.67093306  0.45511967  0.30127992  1.0
  Ti  Ti404  1  0.67093306  0.78845300  0.30127992  1.0
  Ti  Ti405  1  0.15241454  0.23289744  0.24572436  1.0
  Ti  Ti406  1  0.15241454  0.56623078  0.24572436  1.0
  Ti  Ti407  1  0.15241454  0.89956411  0.24572436  1.0
  Ti  Ti408  1  0.48574787  0.23289744  0.24572436  1.0
  Ti  Ti409  1  0.48574787  0.56623078  0.24572436  1.0
  Ti  Ti410  1  0.48574787  0.89956411  0.24572436  1.0
  Ti  Ti411  1  0.81908120  0.23289744  0.24572436  1.0
  Ti  Ti412  1  0.81908120  0.56623078  0.24572436  1.0
  Ti  Ti413  1  0.81908120  0.89956411  0.24572436  1.0
  Ti  Ti414  1  0.31837322  0.06410683  0.24360042  1.0
  Ti  Ti415  1  0.31837322  0.39744017  0.24360042  1.0
  Ti  Ti416  1  0.31837322  0.73077350  0.24360042  1.0
  Ti  Ti417  1  0.65170656  0.06410683  0.24360042  1.0
  Ti  Ti418  1  0.65170656  0.39744017  0.24360042  1.0
  Ti  Ti419  1  0.65170656  0.73077350  0.24360042  1.0
  Ti  Ti420  1  0.98503989  0.06410683  0.24360042  1.0
  Ti  Ti421  1  0.98503989  0.39744017  0.24360042  1.0
  Ti  Ti422  1  0.98503989  0.73077350  0.24360042  1.0
  Ti  Ti423  1  0.17022507  0.28632906  0.29915597  1.0
  Ti  Ti424  1  0.17022507  0.61966239  0.29915597  1.0
  Ti  Ti425  1  0.17022507  0.95299572  0.29915597  1.0
  Ti  Ti426  1  0.50355841  0.28632906  0.29915597  1.0
  Ti  Ti427  1  0.50355841  0.61966239  0.29915597  1.0
  Ti  Ti428  1  0.50355841  0.95299572  0.29915597  1.0
  Ti  Ti429  1  0.83689174  0.28632906  0.29915597  1.0
  Ti  Ti430  1  0.83689174  0.61966239  0.29915597  1.0
  Ti  Ti431  1  0.83689174  0.95299572  0.29915597  1.0
  Ti  Ti432  1  0.10967665  0.04700428  0.28099144  1.0
  Ti  Ti433  1  0.10967665  0.38033761  0.28099144  1.0
  Ti  Ti434  1  0.10967665  0.71367094  0.28099144  1.0
  Ti  Ti435  1  0.44300998  0.04700428  0.28099144  1.0
  Ti  Ti436  1  0.44300998  0.38033761  0.28099144  1.0
  Ti  Ti437  1  0.44300998  0.71367094  0.28099144  1.0
  Ti  Ti438  1  0.77634331  0.04700428  0.28099144  1.0
  Ti  Ti439  1  0.77634331  0.38033761  0.28099144  1.0
  Ti  Ti440  1  0.77634331  0.71367094  0.28099144  1.0
  Ti  Ti441  1  0.25782480  0.15811539  0.22543589  1.0
  Ti  Ti442  1  0.25782480  0.49144872  0.22543589  1.0
  Ti  Ti443  1  0.25782480  0.82478206  0.22543589  1.0
  Ti  Ti444  1  0.59115813  0.15811539  0.22543589  1.0
  Ti  Ti445  1  0.59115813  0.49144872  0.22543589  1.0
  Ti  Ti446  1  0.59115813  0.82478206  0.22543589  1.0
  Ti  Ti447  1  0.92449146  0.15811539  0.22543589  1.0
  Ti  Ti448  1  0.92449146  0.49144872  0.22543589  1.0
  Ti  Ti449  1  0.92449146  0.82478206  0.22543589  1.0
  Ti  Ti450  1  0.18091880  0.10043589  0.25427564  1.0
  Ti  Ti451  1  0.18091880  0.43376922  0.25427564  1.0
  Ti  Ti452  1  0.18091880  0.76710256  0.25427564  1.0
  Ti  Ti453  1  0.51425213  0.10043589  0.25427564  1.0
  Ti  Ti454  1  0.51425213  0.43376922  0.25427564  1.0
  Ti  Ti455  1  0.51425213  0.76710256  0.25427564  1.0
  Ti  Ti456  1  0.84758546  0.10043589  0.25427564  1.0
  Ti  Ti457  1  0.84758546  0.43376922  0.25427564  1.0
  Ti  Ti458  1  0.84758546  0.76710256  0.25427564  1.0
  Ti  Ti459  1  0.03277065  0.32265811  0.30983119  1.0
  Ti  Ti460  1  0.03277065  0.65599144  0.30983119  1.0
  Ti  Ti461  1  0.03277065  0.98932478  0.30983119  1.0
  Ti  Ti462  1  0.36610398  0.32265811  0.30983119  1.0
  Ti  Ti463  1  0.36610398  0.65599144  0.30983119  1.0
  Ti  Ti464  1  0.36610398  0.98932478  0.30983119  1.0
  Ti  Ti465  1  0.69943731  0.32265811  0.30983119  1.0
  Ti  Ti466  1  0.69943731  0.65599144  0.30983119  1.0
  Ti  Ti467  1  0.69943731  0.98932478  0.30983119  1.0
  Ti  Ti468  1  0.23718233  0.26922650  0.42306625  1.0
  Ti  Ti469  1  0.23718233  0.60255983  0.42306625  1.0
  Ti  Ti470  1  0.23718233  0.93589317  0.42306625  1.0
  Ti  Ti471  1  0.57051567  0.26922650  0.42306625  1.0
  Ti  Ti472  1  0.57051567  0.60255983  0.42306625  1.0
  Ti  Ti473  1  0.57051567  0.93589317  0.42306625  1.0
  Ti  Ti474  1  0.90384900  0.26922650  0.42306625  1.0
  Ti  Ti475  1  0.90384900  0.60255983  0.42306625  1.0
  Ti  Ti476  1  0.90384900  0.93589317  0.42306625  1.0
  Ti  Ti477  1  0.05199715  0.04700428  0.36751069  1.0
  Ti  Ti478  1  0.05199715  0.38033761  0.36751069  1.0
  Ti  Ti479  1  0.05199715  0.71367094  0.36751069  1.0
  Ti  Ti480  1  0.38533048  0.04700428  0.36751069  1.0
  Ti  Ti481  1  0.38533048  0.38033761  0.36751069  1.0
  Ti  Ti482  1  0.38533048  0.71367094  0.36751069  1.0
  Ti  Ti483  1  0.71866381  0.04700428  0.36751069  1.0
  Ti  Ti484  1  0.71866381  0.38033761  0.36751069  1.0
  Ti  Ti485  1  0.71866381  0.71367094  0.36751069  1.0
  Ti  Ti486  1  0.11254557  0.28632906  0.38567522  1.0
  Ti  Ti487  1  0.11254557  0.61966239  0.38567522  1.0
  Ti  Ti488  1  0.11254557  0.95299572  0.38567522  1.0
  Ti  Ti489  1  0.44587891  0.28632906  0.38567522  1.0
  Ti  Ti490  1  0.44587891  0.61966239  0.38567522  1.0
  Ti  Ti491  1  0.44587891  0.95299572  0.38567522  1.0
  Ti  Ti492  1  0.77921224  0.28632906  0.38567522  1.0
  Ti  Ti493  1  0.77921224  0.61966239  0.38567522  1.0
  Ti  Ti494  1  0.77921224  0.95299572  0.38567522  1.0
  Ti  Ti495  1  0.29773076  0.17521794  0.44123078  1.0
  Ti  Ti496  1  0.29773076  0.50855128  0.44123078  1.0
  Ti  Ti497  1  0.29773076  0.84188461  0.44123078  1.0
  Ti  Ti498  1  0.63106409  0.17521794  0.44123078  1.0
  Ti  Ti499  1  0.63106409  0.50855128  0.44123078  1.0
  Ti  Ti500  1  0.63106409  0.84188461  0.44123078  1.0
  Ti  Ti501  1  0.96439743  0.17521794  0.44123078  1.0
  Ti  Ti502  1  0.96439743  0.50855128  0.44123078  1.0
  Ti  Ti503  1  0.96439743  0.84188461  0.44123078  1.0
  Ti  Ti504  1  0.04130343  0.23289744  0.41239103  1.0
  Ti  Ti505  1  0.04130343  0.56623078  0.41239103  1.0
  Ti  Ti506  1  0.04130343  0.89956411  0.41239103  1.0
  Ti  Ti507  1  0.37463676  0.23289744  0.41239103  1.0
  Ti  Ti508  1  0.37463676  0.56623078  0.41239103  1.0
  Ti  Ti509  1  0.37463676  0.89956411  0.41239103  1.0
  Ti  Ti510  1  0.70797009  0.23289744  0.41239103  1.0
  Ti  Ti511  1  0.70797009  0.56623078  0.41239103  1.0
  Ti  Ti512  1  0.70797009  0.89956411  0.41239103  1.0
  Ti  Ti513  1  0.18945157  0.01067522  0.35683547  1.0
  Ti  Ti514  1  0.18945157  0.34400856  0.35683547  1.0
  Ti  Ti515  1  0.18945157  0.67734189  0.35683547  1.0
  Ti  Ti516  1  0.52278491  0.01067522  0.35683547  1.0
  Ti  Ti517  1  0.52278491  0.34400856  0.35683547  1.0
  Ti  Ti518  1  0.52278491  0.67734189  0.35683547  1.0
  Ti  Ti519  1  0.85611824  0.01067522  0.35683547  1.0
  Ti  Ti520  1  0.85611824  0.34400856  0.35683547  1.0
  Ti  Ti521  1  0.85611824  0.67734189  0.35683547  1.0
  Ti  Ti522  1  0.02207693  0.17521794  0.35471153  1.0
  Ti  Ti523  1  0.02207693  0.50855128  0.35471153  1.0
  Ti  Ti524  1  0.02207693  0.84188461  0.35471153  1.0
  Ti  Ti525  1  0.35541026  0.17521794  0.35471153  1.0
  Ti  Ti526  1  0.35541026  0.50855128  0.35471153  1.0
  Ti  Ti527  1  0.35541026  0.84188461  0.35471153  1.0
  Ti  Ti528  1  0.68874359  0.17521794  0.35471153  1.0
  Ti  Ti529  1  0.68874359  0.50855128  0.35471153  1.0
  Ti  Ti530  1  0.68874359  0.84188461  0.35471153  1.0
  Ti  Ti531  1  0.20726211  0.06410683  0.41026708  1.0
  Ti  Ti532  1  0.20726211  0.39744017  0.41026708  1.0
  Ti  Ti533  1  0.20726211  0.73077350  0.41026708  1.0
  Ti  Ti534  1  0.54059544  0.06410683  0.41026708  1.0
  Ti  Ti535  1  0.54059544  0.39744017  0.41026708  1.0
  Ti  Ti536  1  0.54059544  0.73077350  0.41026708  1.0
  Ti  Ti537  1  0.87392878  0.06410683  0.41026708  1.0
  Ti  Ti538  1  0.87392878  0.39744017  0.41026708  1.0
  Ti  Ti539  1  0.87392878  0.73077350  0.41026708  1.0
  Ti  Ti540  1  0.14671369  0.15811539  0.39210256  1.0
  Ti  Ti541  1  0.14671369  0.49144872  0.39210256  1.0
  Ti  Ti542  1  0.14671369  0.82478206  0.39210256  1.0
  Ti  Ti543  1  0.48004702  0.15811539  0.39210256  1.0
  Ti  Ti544  1  0.48004702  0.49144872  0.39210256  1.0
  Ti  Ti545  1  0.48004702  0.82478206  0.39210256  1.0
  Ti  Ti546  1  0.81338035  0.15811539  0.39210256  1.0
  Ti  Ti547  1  0.81338035  0.49144872  0.39210256  1.0
  Ti  Ti548  1  0.81338035  0.82478206  0.39210256  1.0
  Ti  Ti549  1  0.29486183  0.26922650  0.33654700  1.0
  Ti  Ti550  1  0.29486183  0.60255983  0.33654700  1.0
  Ti  Ti551  1  0.29486183  0.93589317  0.33654700  1.0
  Ti  Ti552  1  0.62819517  0.26922650  0.33654700  1.0
  Ti  Ti553  1  0.62819517  0.60255983  0.33654700  1.0
  Ti  Ti554  1  0.62819517  0.93589317  0.33654700  1.0
  Ti  Ti555  1  0.96152850  0.26922650  0.33654700  1.0
  Ti  Ti556  1  0.96152850  0.60255983  0.33654700  1.0
  Ti  Ti557  1  0.96152850  0.93589317  0.33654700  1.0
  Ti  Ti558  1  0.21795583  0.21154700  0.36538675  1.0
  Ti  Ti559  1  0.21795583  0.54488033  0.36538675  1.0
  Ti  Ti560  1  0.21795583  0.87821367  0.36538675  1.0
  Ti  Ti561  1  0.55128917  0.21154700  0.36538675  1.0
  Ti  Ti562  1  0.55128917  0.54488033  0.36538675  1.0
  Ti  Ti563  1  0.55128917  0.87821367  0.36538675  1.0
  Ti  Ti564  1  0.88462250  0.21154700  0.36538675  1.0
  Ti  Ti565  1  0.88462250  0.54488033  0.36538675  1.0
  Ti  Ti566  1  0.88462250  0.87821367  0.36538675  1.0
  Ti  Ti567  1  0.06980769  0.10043589  0.42094231  1.0
  Ti  Ti568  1  0.06980769  0.43376922  0.42094231  1.0
  Ti  Ti569  1  0.06980769  0.76710256  0.42094231  1.0
  Ti  Ti570  1  0.40314102  0.10043589  0.42094231  1.0
  Ti  Ti571  1  0.40314102  0.43376922  0.42094231  1.0
  Ti  Ti572  1  0.40314102  0.76710256  0.42094231  1.0
  Ti  Ti573  1  0.73647435  0.10043589  0.42094231  1.0
  Ti  Ti574  1  0.73647435  0.43376922  0.42094231  1.0
  Ti  Ti575  1  0.73647435  0.76710256  0.42094231  1.0
