# generated using pymatgen
data_Ti3Ni4
_symmetry_space_group_name_H-M   'P 1'
_cell_length_a   20.07130308
_cell_length_b   21.89828572
_cell_length_c   33.45217180
_cell_angle_alpha   56.94032010
_cell_angle_beta   113.88064020
_cell_angle_gamma   137.91185936
_symmetry_Int_Tables_number   1
_chemical_formula_structural   Ti3Ni4
_chemical_formula_sum   'Ti108 Ni144'
_cell_volume   8259.60057201
_cell_formula_units_Z   36
loop_
 _symmetry_equiv_pos_site_id
 _symmetry_equiv_pos_as_xyz
  1  'x, y, z'
loop_
 _atom_site_type_symbol
 _atom_site_label
 _atom_site_symmetry_multiplicity
 _atom_site_fract_x
 _atom_site_fract_y
 _atom_site_fract_z
 _atom_site_occupancy
  Ti  Ti0  1  0.03621267  0.16851533  0.13401670  1.0
  Ti  Ti1  1  0.03621267  0.50184867  0.13401670  1.0
  Ti  Ti2  1  0.03621267  0.83518200  0.13401670  1.0
  Ti  Ti3  1  0.36954600  0.16851533  0.13401670  1.0
  Ti  Ti4  1  0.36954600  0.50184867  0.13401670  1.0
  Ti  Ti5  1  0.36954600  0.83518200  0.13401670  1.0
  Ti  Ti6  1  0.70287933  0.16851533  0.13401670  1.0
  Ti  Ti7  1  0.70287933  0.50184867  0.13401670  1.0
  Ti  Ti8  1  0.70287933  0.83518200  0.13401670  1.0
  Ti  Ti9  1  0.16481800  0.25245967  0.01339830  1.0
  Ti  Ti10  1  0.16481800  0.58579300  0.01339830  1.0
  Ti  Ti11  1  0.16481800  0.91912633  0.01339830  1.0
  Ti  Ti12  1  0.49815133  0.25245967  0.01339830  1.0
  Ti  Ti13  1  0.49815133  0.58579300  0.01339830  1.0
  Ti  Ti14  1  0.49815133  0.91912633  0.01339830  1.0
  Ti  Ti15  1  0.83148467  0.25245967  0.01339830  1.0
  Ti  Ti16  1  0.83148467  0.58579300  0.01339830  1.0
  Ti  Ti17  1  0.83148467  0.91912633  0.01339830  1.0
  Ti  Ti18  1  0.29712067  0.16481800  0.03918670  1.0
  Ti  Ti19  1  0.29712067  0.49815133  0.03918670  1.0
  Ti  Ti20  1  0.29712067  0.83148467  0.03918670  1.0
  Ti  Ti21  1  0.63045400  0.16481800  0.03918670  1.0
  Ti  Ti22  1  0.63045400  0.49815133  0.03918670  1.0
  Ti  Ti23  1  0.63045400  0.83148467  0.03918670  1.0
  Ti  Ti24  1  0.96378733  0.16481800  0.03918670  1.0
  Ti  Ti25  1  0.96378733  0.49815133  0.03918670  1.0
  Ti  Ti26  1  0.96378733  0.83148467  0.03918670  1.0
  Ti  Ti27  1  0.25245967  0.29712067  0.10722010  1.0
  Ti  Ti28  1  0.25245967  0.63045400  0.10722010  1.0
  Ti  Ti29  1  0.25245967  0.96378733  0.10722010  1.0
  Ti  Ti30  1  0.58579300  0.29712067  0.10722010  1.0
  Ti  Ti31  1  0.58579300  0.63045400  0.10722010  1.0
  Ti  Ti32  1  0.58579300  0.96378733  0.10722010  1.0
  Ti  Ti33  1  0.91912633  0.29712067  0.10722010  1.0
  Ti  Ti34  1  0.91912633  0.63045400  0.10722010  1.0
  Ti  Ti35  1  0.91912633  0.96378733  0.10722010  1.0
  Ti  Ti36  1  0.08087367  0.03621267  0.06598330  1.0
  Ti  Ti37  1  0.08087367  0.36954600  0.06598330  1.0
  Ti  Ti38  1  0.08087367  0.70287933  0.06598330  1.0
  Ti  Ti39  1  0.41420700  0.03621267  0.06598330  1.0
  Ti  Ti40  1  0.41420700  0.36954600  0.06598330  1.0
  Ti  Ti41  1  0.41420700  0.70287933  0.06598330  1.0
  Ti  Ti42  1  0.74754033  0.03621267  0.06598330  1.0
  Ti  Ti43  1  0.74754033  0.36954600  0.06598330  1.0
  Ti  Ti44  1  0.74754033  0.70287933  0.06598330  1.0
  Ti  Ti45  1  0.16851533  0.08087367  0.15980510  1.0
  Ti  Ti46  1  0.16851533  0.41420700  0.15980510  1.0
  Ti  Ti47  1  0.16851533  0.74754033  0.15980510  1.0
  Ti  Ti48  1  0.50184867  0.08087367  0.15980510  1.0
  Ti  Ti49  1  0.50184867  0.41420700  0.15980510  1.0
  Ti  Ti50  1  0.50184867  0.74754033  0.15980510  1.0
  Ti  Ti51  1  0.83518200  0.08087367  0.15980510  1.0
  Ti  Ti52  1  0.83518200  0.41420700  0.15980510  1.0
  Ti  Ti53  1  0.83518200  0.74754033  0.15980510  1.0
  Ni  Ni54  1  0.08544233  0.13849200  0.09145250  1.0
  Ni  Ni55  1  0.08544233  0.47182533  0.09145250  1.0
  Ni  Ni56  1  0.08544233  0.80515867  0.09145250  1.0
  Ni  Ni57  1  0.41877567  0.13849200  0.09145250  1.0
  Ni  Ni58  1  0.41877567  0.47182533  0.09145250  1.0
  Ni  Ni59  1  0.41877567  0.80515867  0.09145250  1.0
  Ni  Ni60  1  0.75210900  0.13849200  0.09145250  1.0
  Ni  Ni61  1  0.75210900  0.47182533  0.09145250  1.0
  Ni  Ni62  1  0.75210900  0.80515867  0.09145250  1.0
  Ni  Ni63  1  0.24789100  0.19484133  0.08175090  1.0
  Ni  Ni64  1  0.24789100  0.52817467  0.08175090  1.0
  Ni  Ni65  1  0.24789100  0.86150800  0.08175090  1.0
  Ni  Ni66  1  0.58122433  0.19484133  0.08175090  1.0
  Ni  Ni67  1  0.58122433  0.52817467  0.08175090  1.0
  Ni  Ni68  1  0.58122433  0.86150800  0.08175090  1.0
  Ni  Ni69  1  0.91455767  0.19484133  0.08175090  1.0
  Ni  Ni70  1  0.91455767  0.52817467  0.08175090  1.0
  Ni  Ni71  1  0.91455767  0.86150800  0.08175090  1.0
  Ni  Ni72  1  0.31324333  0.08544233  0.01843150  1.0
  Ni  Ni73  1  0.31324333  0.41877567  0.01843150  1.0
  Ni  Ni74  1  0.31324333  0.75210900  0.01843150  1.0
  Ni  Ni75  1  0.64657667  0.08544233  0.01843150  1.0
  Ni  Ni76  1  0.64657667  0.41877567  0.01843150  1.0
  Ni  Ni77  1  0.64657667  0.75210900  0.01843150  1.0
  Ni  Ni78  1  0.97991000  0.08544233  0.01843150  1.0
  Ni  Ni79  1  0.97991000  0.41877567  0.01843150  1.0
  Ni  Ni80  1  0.97991000  0.75210900  0.01843150  1.0
  Ni  Ni81  1  0.13849200  0.31324333  0.04992110  1.0
  Ni  Ni82  1  0.13849200  0.64657667  0.04992110  1.0
  Ni  Ni83  1  0.13849200  0.97991000  0.04992110  1.0
  Ni  Ni84  1  0.47182533  0.31324333  0.04992110  1.0
  Ni  Ni85  1  0.47182533  0.64657667  0.04992110  1.0
  Ni  Ni86  1  0.47182533  0.97991000  0.04992110  1.0
  Ni  Ni87  1  0.80515867  0.31324333  0.04992110  1.0
  Ni  Ni88  1  0.80515867  0.64657667  0.04992110  1.0
  Ni  Ni89  1  0.80515867  0.97991000  0.04992110  1.0
  Ni  Ni90  1  0.02009000  0.24789100  0.15477190  1.0
  Ni  Ni91  1  0.02009000  0.58122433  0.15477190  1.0
  Ni  Ni92  1  0.02009000  0.91455767  0.15477190  1.0
  Ni  Ni93  1  0.35342333  0.24789100  0.15477190  1.0
  Ni  Ni94  1  0.35342333  0.58122433  0.15477190  1.0
  Ni  Ni95  1  0.35342333  0.91455767  0.15477190  1.0
  Ni  Ni96  1  0.68675667  0.24789100  0.15477190  1.0
  Ni  Ni97  1  0.68675667  0.58122433  0.15477190  1.0
  Ni  Ni98  1  0.68675667  0.91455767  0.15477190  1.0
  Ni  Ni99  1  0.00000000  0.00000000  0.18660170  1.0
  Ni  Ni100  1  0.00000000  0.33333333  0.18660170  1.0
  Ni  Ni101  1  0.00000000  0.66666667  0.18660170  1.0
  Ni  Ni102  1  0.33333333  0.00000000  0.18660170  1.0
  Ni  Ni103  1  0.33333333  0.33333333  0.18660170  1.0
  Ni  Ni104  1  0.33333333  0.66666667  0.18660170  1.0
  Ni  Ni105  1  0.66666667  0.00000000  0.18660170  1.0
  Ni  Ni106  1  0.66666667  0.33333333  0.18660170  1.0
  Ni  Ni107  1  0.66666667  0.66666667  0.18660170  1.0
  Ni  Ni108  1  0.19484133  0.02009000  0.12328230  1.0
  Ni  Ni109  1  0.19484133  0.35342333  0.12328230  1.0
  Ni  Ni110  1  0.19484133  0.68675667  0.12328230  1.0
  Ni  Ni111  1  0.52817467  0.02009000  0.12328230  1.0
  Ni  Ni112  1  0.52817467  0.35342333  0.12328230  1.0
  Ni  Ni113  1  0.52817467  0.68675667  0.12328230  1.0
  Ni  Ni114  1  0.86150800  0.02009000  0.12328230  1.0
  Ni  Ni115  1  0.86150800  0.35342333  0.12328230  1.0
  Ni  Ni116  1  0.86150800  0.68675667  0.12328230  1.0
  Ni  Ni117  1  0.16666667  0.16666667  0.18660170  1.0
  Ni  Ni118  1  0.16666667  0.50000000  0.18660170  1.0
  Ni  Ni119  1  0.16666667  0.83333333  0.18660170  1.0
  Ni  Ni120  1  0.50000000  0.16666667  0.18660170  1.0
  Ni  Ni121  1  0.50000000  0.50000000  0.18660170  1.0
  Ni  Ni122  1  0.50000000  0.83333333  0.18660170  1.0
  Ni  Ni123  1  0.83333333  0.16666667  0.18660170  1.0
  Ni  Ni124  1  0.83333333  0.50000000  0.18660170  1.0
  Ni  Ni125  1  0.83333333  0.83333333  0.18660170  1.0
  Ti  Ti126  1  0.03621267  0.16851533  0.33401670  1.0
  Ti  Ti127  1  0.03621267  0.50184867  0.33401670  1.0
  Ti  Ti128  1  0.03621267  0.83518200  0.33401670  1.0
  Ti  Ti129  1  0.36954600  0.16851533  0.33401670  1.0
  Ti  Ti130  1  0.36954600  0.50184867  0.33401670  1.0
  Ti  Ti131  1  0.36954600  0.83518200  0.33401670  1.0
  Ti  Ti132  1  0.70287933  0.16851533  0.33401670  1.0
  Ti  Ti133  1  0.70287933  0.50184867  0.33401670  1.0
  Ti  Ti134  1  0.70287933  0.83518200  0.33401670  1.0
  Ti  Ti135  1  0.16481800  0.25245967  0.21339830  1.0
  Ti  Ti136  1  0.16481800  0.58579300  0.21339830  1.0
  Ti  Ti137  1  0.16481800  0.91912633  0.21339830  1.0
  Ti  Ti138  1  0.49815133  0.25245967  0.21339830  1.0
  Ti  Ti139  1  0.49815133  0.58579300  0.21339830  1.0
  Ti  Ti140  1  0.49815133  0.91912633  0.21339830  1.0
  Ti  Ti141  1  0.83148467  0.25245967  0.21339830  1.0
  Ti  Ti142  1  0.83148467  0.58579300  0.21339830  1.0
  Ti  Ti143  1  0.83148467  0.91912633  0.21339830  1.0
  Ti  Ti144  1  0.29712067  0.16481800  0.23918670  1.0
  Ti  Ti145  1  0.29712067  0.49815133  0.23918670  1.0
  Ti  Ti146  1  0.29712067  0.83148467  0.23918670  1.0
  Ti  Ti147  1  0.63045400  0.16481800  0.23918670  1.0
  Ti  Ti148  1  0.63045400  0.49815133  0.23918670  1.0
  Ti  Ti149  1  0.63045400  0.83148467  0.23918670  1.0
  Ti  Ti150  1  0.96378733  0.16481800  0.23918670  1.0
  Ti  Ti151  1  0.96378733  0.49815133  0.23918670  1.0
  Ti  Ti152  1  0.96378733  0.83148467  0.23918670  1.0
  Ti  Ti153  1  0.25245967  0.29712067  0.30722010  1.0
  Ti  Ti154  1  0.25245967  0.63045400  0.30722010  1.0
  Ti  Ti155  1  0.25245967  0.96378733  0.30722010  1.0
  Ti  Ti156  1  0.58579300  0.29712067  0.30722010  1.0
  Ti  Ti157  1  0.58579300  0.63045400  0.30722010  1.0
  Ti  Ti158  1  0.58579300  0.96378733  0.30722010  1.0
  Ti  Ti159  1  0.91912633  0.29712067  0.30722010  1.0
  Ti  Ti160  1  0.91912633  0.63045400  0.30722010  1.0
  Ti  Ti161  1  0.91912633  0.96378733  0.30722010  1.0
  Ti  Ti162  1  0.08087367  0.03621267  0.26598330  1.0
  Ti  Ti163  1  0.08087367  0.36954600  0.26598330  1.0
  Ti  Ti164  1  0.08087367  0.70287933  0.26598330  1.0
  Ti  Ti165  1  0.41420700  0.03621267  0.26598330  1.0
  Ti  Ti166  1  0.41420700  0.36954600  0.26598330  1.0
  Ti  Ti167  1  0.41420700  0.70287933  0.26598330  1.0
  Ti  Ti168  1  0.74754033  0.03621267  0.26598330  1.0
  Ti  Ti169  1  0.74754033  0.36954600  0.26598330  1.0
  Ti  Ti170  1  0.74754033  0.70287933  0.26598330  1.0
  Ti  Ti171  1  0.16851533  0.08087367  0.35980510  1.0
  Ti  Ti172  1  0.16851533  0.41420700  0.35980510  1.0
  Ti  Ti173  1  0.16851533  0.74754033  0.35980510  1.0
  Ti  Ti174  1  0.50184867  0.08087367  0.35980510  1.0
  Ti  Ti175  1  0.50184867  0.41420700  0.35980510  1.0
  Ti  Ti176  1  0.50184867  0.74754033  0.35980510  1.0
  Ti  Ti177  1  0.83518200  0.08087367  0.35980510  1.0
  Ti  Ti178  1  0.83518200  0.41420700  0.35980510  1.0
  Ti  Ti179  1  0.83518200  0.74754033  0.35980510  1.0
  Ni  Ni180  1  0.08544233  0.13849200  0.29145250  1.0
  Ni  Ni181  1  0.08544233  0.47182533  0.29145250  1.0
  Ni  Ni182  1  0.08544233  0.80515867  0.29145250  1.0
  Ni  Ni183  1  0.41877567  0.13849200  0.29145250  1.0
  Ni  Ni184  1  0.41877567  0.47182533  0.29145250  1.0
  Ni  Ni185  1  0.41877567  0.80515867  0.29145250  1.0
  Ni  Ni186  1  0.75210900  0.13849200  0.29145250  1.0
  Ni  Ni187  1  0.75210900  0.47182533  0.29145250  1.0
  Ni  Ni188  1  0.75210900  0.80515867  0.29145250  1.0
  Ni  Ni189  1  0.24789100  0.19484133  0.28175090  1.0
  Ni  Ni190  1  0.24789100  0.52817467  0.28175090  1.0
  Ni  Ni191  1  0.24789100  0.86150800  0.28175090  1.0
  Ni  Ni192  1  0.58122433  0.19484133  0.28175090  1.0
  Ni  Ni193  1  0.58122433  0.52817467  0.28175090  1.0
  Ni  Ni194  1  0.58122433  0.86150800  0.28175090  1.0
  Ni  Ni195  1  0.91455767  0.19484133  0.28175090  1.0
  Ni  Ni196  1  0.91455767  0.52817467  0.28175090  1.0
  Ni  Ni197  1  0.91455767  0.86150800  0.28175090  1.0
  Ni  Ni198  1  0.31324333  0.08544233  0.21843150  1.0
  Ni  Ni199  1  0.31324333  0.41877567  0.21843150  1.0
  Ni  Ni200  1  0.31324333  0.75210900  0.21843150  1.0
  Ni  Ni201  1  0.64657667  0.08544233  0.21843150  1.0
  Ni  Ni202  1  0.64657667  0.41877567  0.21843150  1.0
  Ni  Ni203  1  0.64657667  0.75210900  0.21843150  1.0
  Ni  Ni204  1  0.97991000  0.08544233  0.21843150  1.0
  Ni  Ni205  1  0.97991000  0.41877567  0.21843150  1.0
  Ni  Ni206  1  0.97991000  0.75210900  0.21843150  1.0
  Ni  Ni207  1  0.13849200  0.31324333  0.24992110  1.0
  Ni  Ni208  1  0.13849200  0.64657667  0.24992110  1.0
  Ni  Ni209  1  0.13849200  0.97991000  0.24992110  1.0
  Ni  Ni210  1  0.47182533  0.31324333  0.24992110  1.0
  Ni  Ni211  1  0.47182533  0.64657667  0.24992110  1.0
  Ni  Ni212  1  0.47182533  0.97991000  0.24992110  1.0
  Ni  Ni213  1  0.80515867  0.31324333  0.24992110  1.0
  Ni  Ni214  1  0.80515867  0.64657667  0.24992110  1.0
  Ni  Ni215  1  0.80515867  0.97991000  0.24992110  1.0
  Ni  Ni216  1  0.02009000  0.24789100  0.35477190  1.0
  Ni  Ni217  1  0.02009000  0.58122433  0.35477190  1.0
  Ni  Ni218  1  0.02009000  0.91455767  0.35477190  1.0
  Ni  Ni219  1  0.35342333  0.24789100  0.35477190  1.0
  Ni  Ni220  1  0.35342333  0.58122433  0.35477190  1.0
  Ni  Ni221  1  0.35342333  0.91455767  0.35477190  1.0
  Ni  Ni222  1  0.68675667  0.24789100  0.35477190  1.0
  Ni  Ni223  1  0.68675667  0.58122433  0.35477190  1.0
  Ni  Ni224  1  0.68675667  0.91455767  0.35477190  1.0
  Ni  Ni225  1  0.00000000  0.00000000  0.38660170  1.0
  Ni  Ni226  1  0.00000000  0.33333333  0.38660170  1.0
  Ni  Ni227  1  0.00000000  0.66666667  0.38660170  1.0
  Ni  Ni228  1  0.33333333  0.00000000  0.38660170  1.0
  Ni  Ni229  1  0.33333333  0.33333333  0.38660170  1.0
  Ni  Ni230  1  0.33333333  0.66666667  0.38660170  1.0
  Ni  Ni231  1  0.66666667  0.00000000  0.38660170  1.0
  Ni  Ni232  1  0.66666667  0.33333333  0.38660170  1.0
  Ni  Ni233  1  0.66666667  0.66666667  0.38660170  1.0
  Ni  Ni234  1  0.19484133  0.02009000  0.32328230  1.0
  Ni  Ni235  1  0.19484133  0.35342333  0.32328230  1.0
  Ni  Ni236  1  0.19484133  0.68675667  0.32328230  1.0
  Ni  Ni237  1  0.52817467  0.02009000  0.32328230  1.0
  Ni  Ni238  1  0.52817467  0.35342333  0.32328230  1.0
  Ni  Ni239  1  0.52817467  0.68675667  0.32328230  1.0
  Ni  Ni240  1  0.86150800  0.02009000  0.32328230  1.0
  Ni  Ni241  1  0.86150800  0.35342333  0.32328230  1.0
  Ni  Ni242  1  0.86150800  0.68675667  0.32328230  1.0
  Ni  Ni243  1  0.16666667  0.16666667  0.38660170  1.0
  Ni  Ni244  1  0.16666667  0.50000000  0.38660170  1.0
  Ni  Ni245  1  0.16666667  0.83333333  0.38660170  1.0
  Ni  Ni246  1  0.50000000  0.16666667  0.38660170  1.0
  Ni  Ni247  1  0.50000000  0.50000000  0.38660170  1.0
  Ni  Ni248  1  0.50000000  0.83333333  0.38660170  1.0
  Ni  Ni249  1  0.83333333  0.16666667  0.38660170  1.0
  Ni  Ni250  1  0.83333333  0.50000000  0.38660170  1.0
  Ni  Ni251  1  0.83333333  0.83333333  0.38660170  1.0
