# generated using pymatgen
data_Ti3Ni
_symmetry_space_group_name_H-M   'P 1'
_cell_length_a   28.29830902
_cell_length_b   21.43458798
_cell_length_c   36.99947200
_cell_angle_alpha   130.33901895
_cell_angle_beta   90.00000000
_cell_angle_gamma   90.00000000
_symmetry_Int_Tables_number   1
_chemical_formula_structural   Ti3Ni
_chemical_formula_sum   'Ti324 Ni108'
_cell_volume   17106.29151610
_cell_formula_units_Z   108
loop_
 _symmetry_equiv_pos_site_id
 _symmetry_equiv_pos_as_xyz
  1  'x, y, z'
loop_
 _atom_site_type_symbol
 _atom_site_label
 _atom_site_symmetry_multiplicity
 _atom_site_fract_x
 _atom_site_fract_y
 _atom_site_fract_z
 _atom_site_occupancy
  Ti  Ti0  1  0.13782692  0.08014742  0.04508292  1.0
  Ti  Ti1  1  0.13782692  0.41348075  0.04508292  1.0
  Ti  Ti2  1  0.13782692  0.74681408  0.04508292  1.0
  Ti  Ti3  1  0.47116025  0.08014742  0.04508292  1.0
  Ti  Ti4  1  0.47116025  0.41348075  0.04508292  1.0
  Ti  Ti5  1  0.47116025  0.74681408  0.04508292  1.0
  Ti  Ti6  1  0.80449358  0.08014742  0.04508292  1.0
  Ti  Ti7  1  0.80449358  0.41348075  0.04508292  1.0
  Ti  Ti8  1  0.80449358  0.74681408  0.04508292  1.0
  Ti  Ti9  1  0.30449358  0.24681408  0.10758292  1.0
  Ti  Ti10  1  0.30449358  0.58014742  0.10758292  1.0
  Ti  Ti11  1  0.30449358  0.91348075  0.10758292  1.0
  Ti  Ti12  1  0.63782692  0.24681408  0.10758292  1.0
  Ti  Ti13  1  0.63782692  0.58014742  0.10758292  1.0
  Ti  Ti14  1  0.63782692  0.91348075  0.10758292  1.0
  Ti  Ti15  1  0.97116025  0.24681408  0.10758292  1.0
  Ti  Ti16  1  0.97116025  0.58014742  0.10758292  1.0
  Ti  Ti17  1  0.97116025  0.91348075  0.10758292  1.0
  Ti  Ti18  1  0.10898717  0.16666667  0.01502764  1.0
  Ti  Ti19  1  0.10898717  0.50000000  0.01502764  1.0
  Ti  Ti20  1  0.10898717  0.83333333  0.01502764  1.0
  Ti  Ti21  1  0.44232050  0.16666667  0.01502764  1.0
  Ti  Ti22  1  0.44232050  0.50000000  0.01502764  1.0
  Ti  Ti23  1  0.44232050  0.83333333  0.01502764  1.0
  Ti  Ti24  1  0.77565383  0.16666667  0.01502764  1.0
  Ti  Ti25  1  0.77565383  0.50000000  0.01502764  1.0
  Ti  Ti26  1  0.77565383  0.83333333  0.01502764  1.0
  Ti  Ti27  1  0.27565383  0.00000000  0.07752764  1.0
  Ti  Ti28  1  0.27565383  0.33333333  0.07752764  1.0
  Ti  Ti29  1  0.27565383  0.66666667  0.07752764  1.0
  Ti  Ti30  1  0.60898717  0.00000000  0.07752764  1.0
  Ti  Ti31  1  0.60898717  0.33333333  0.07752764  1.0
  Ti  Ti32  1  0.60898717  0.66666667  0.07752764  1.0
  Ti  Ti33  1  0.94232050  0.00000000  0.07752764  1.0
  Ti  Ti34  1  0.94232050  0.33333333  0.07752764  1.0
  Ti  Ti35  1  0.94232050  0.66666667  0.07752764  1.0
  Ti  Ti36  1  0.02883975  0.24681408  0.04508292  1.0
  Ti  Ti37  1  0.02883975  0.58014742  0.04508292  1.0
  Ti  Ti38  1  0.02883975  0.91348075  0.04508292  1.0
  Ti  Ti39  1  0.36217308  0.24681408  0.04508292  1.0
  Ti  Ti40  1  0.36217308  0.58014742  0.04508292  1.0
  Ti  Ti41  1  0.36217308  0.91348075  0.04508292  1.0
  Ti  Ti42  1  0.69550642  0.24681408  0.04508292  1.0
  Ti  Ti43  1  0.69550642  0.58014742  0.04508292  1.0
  Ti  Ti44  1  0.69550642  0.91348075  0.04508292  1.0
  Ti  Ti45  1  0.19550642  0.08014742  0.10758292  1.0
  Ti  Ti46  1  0.19550642  0.41348075  0.10758292  1.0
  Ti  Ti47  1  0.19550642  0.74681408  0.10758292  1.0
  Ti  Ti48  1  0.52883975  0.08014742  0.10758292  1.0
  Ti  Ti49  1  0.52883975  0.41348075  0.10758292  1.0
  Ti  Ti50  1  0.52883975  0.74681408  0.10758292  1.0
  Ti  Ti51  1  0.86217308  0.08014742  0.10758292  1.0
  Ti  Ti52  1  0.86217308  0.41348075  0.10758292  1.0
  Ti  Ti53  1  0.86217308  0.74681408  0.10758292  1.0
  Ti  Ti54  1  0.02883975  0.08651925  0.10997236  1.0
  Ti  Ti55  1  0.02883975  0.41985258  0.10997236  1.0
  Ti  Ti56  1  0.02883975  0.75318592  0.10997236  1.0
  Ti  Ti57  1  0.36217308  0.08651925  0.10997236  1.0
  Ti  Ti58  1  0.36217308  0.41985258  0.10997236  1.0
  Ti  Ti59  1  0.36217308  0.75318592  0.10997236  1.0
  Ti  Ti60  1  0.69550642  0.08651925  0.10997236  1.0
  Ti  Ti61  1  0.69550642  0.41985258  0.10997236  1.0
  Ti  Ti62  1  0.69550642  0.75318592  0.10997236  1.0
  Ti  Ti63  1  0.19550642  0.25318592  0.04747236  1.0
  Ti  Ti64  1  0.19550642  0.58651925  0.04747236  1.0
  Ti  Ti65  1  0.19550642  0.91985258  0.04747236  1.0
  Ti  Ti66  1  0.52883975  0.25318592  0.04747236  1.0
  Ti  Ti67  1  0.52883975  0.58651925  0.04747236  1.0
  Ti  Ti68  1  0.52883975  0.91985258  0.04747236  1.0
  Ti  Ti69  1  0.86217308  0.25318592  0.04747236  1.0
  Ti  Ti70  1  0.86217308  0.58651925  0.04747236  1.0
  Ti  Ti71  1  0.86217308  0.91985258  0.04747236  1.0
  Ti  Ti72  1  0.05767950  0.00000000  0.01502764  1.0
  Ti  Ti73  1  0.05767950  0.33333333  0.01502764  1.0
  Ti  Ti74  1  0.05767950  0.66666667  0.01502764  1.0
  Ti  Ti75  1  0.39101283  0.00000000  0.01502764  1.0
  Ti  Ti76  1  0.39101283  0.33333333  0.01502764  1.0
  Ti  Ti77  1  0.39101283  0.66666667  0.01502764  1.0
  Ti  Ti78  1  0.72434617  0.00000000  0.01502764  1.0
  Ti  Ti79  1  0.72434617  0.33333333  0.01502764  1.0
  Ti  Ti80  1  0.72434617  0.66666667  0.01502764  1.0
  Ti  Ti81  1  0.22434617  0.16666667  0.07752764  1.0
  Ti  Ti82  1  0.22434617  0.50000000  0.07752764  1.0
  Ti  Ti83  1  0.22434617  0.83333333  0.07752764  1.0
  Ti  Ti84  1  0.55767950  0.16666667  0.07752764  1.0
  Ti  Ti85  1  0.55767950  0.50000000  0.07752764  1.0
  Ti  Ti86  1  0.55767950  0.83333333  0.07752764  1.0
  Ti  Ti87  1  0.89101283  0.16666667  0.07752764  1.0
  Ti  Ti88  1  0.89101283  0.50000000  0.07752764  1.0
  Ti  Ti89  1  0.89101283  0.83333333  0.07752764  1.0
  Ti  Ti90  1  0.13782692  0.25318592  0.10997236  1.0
  Ti  Ti91  1  0.13782692  0.58651925  0.10997236  1.0
  Ti  Ti92  1  0.13782692  0.91985258  0.10997236  1.0
  Ti  Ti93  1  0.47116025  0.25318592  0.10997236  1.0
  Ti  Ti94  1  0.47116025  0.58651925  0.10997236  1.0
  Ti  Ti95  1  0.47116025  0.91985258  0.10997236  1.0
  Ti  Ti96  1  0.80449358  0.25318592  0.10997236  1.0
  Ti  Ti97  1  0.80449358  0.58651925  0.10997236  1.0
  Ti  Ti98  1  0.80449358  0.91985258  0.10997236  1.0
  Ti  Ti99  1  0.30449358  0.08651925  0.04747236  1.0
  Ti  Ti100  1  0.30449358  0.41985258  0.04747236  1.0
  Ti  Ti101  1  0.30449358  0.75318592  0.04747236  1.0
  Ti  Ti102  1  0.63782692  0.08651925  0.04747236  1.0
  Ti  Ti103  1  0.63782692  0.41985258  0.04747236  1.0
  Ti  Ti104  1  0.63782692  0.75318592  0.04747236  1.0
  Ti  Ti105  1  0.97116025  0.08651925  0.04747236  1.0
  Ti  Ti106  1  0.97116025  0.41985258  0.04747236  1.0
  Ti  Ti107  1  0.97116025  0.75318592  0.04747236  1.0
  Ni  Ni108  1  0.05555556  0.16666667  0.07752764  1.0
  Ni  Ni109  1  0.05555556  0.50000000  0.07752764  1.0
  Ni  Ni110  1  0.05555556  0.83333333  0.07752764  1.0
  Ni  Ni111  1  0.38888889  0.16666667  0.07752764  1.0
  Ni  Ni112  1  0.38888889  0.50000000  0.07752764  1.0
  Ni  Ni113  1  0.38888889  0.83333333  0.07752764  1.0
  Ni  Ni114  1  0.72222222  0.16666667  0.07752764  1.0
  Ni  Ni115  1  0.72222222  0.50000000  0.07752764  1.0
  Ni  Ni116  1  0.72222222  0.83333333  0.07752764  1.0
  Ni  Ni117  1  0.22222222  0.00000000  0.01502764  1.0
  Ni  Ni118  1  0.22222222  0.33333333  0.01502764  1.0
  Ni  Ni119  1  0.22222222  0.66666667  0.01502764  1.0
  Ni  Ni120  1  0.55555556  0.00000000  0.01502764  1.0
  Ni  Ni121  1  0.55555556  0.33333333  0.01502764  1.0
  Ni  Ni122  1  0.55555556  0.66666667  0.01502764  1.0
  Ni  Ni123  1  0.88888889  0.00000000  0.01502764  1.0
  Ni  Ni124  1  0.88888889  0.33333333  0.01502764  1.0
  Ni  Ni125  1  0.88888889  0.66666667  0.01502764  1.0
  Ni  Ni126  1  0.11111111  0.00000000  0.07752764  1.0
  Ni  Ni127  1  0.11111111  0.33333333  0.07752764  1.0
  Ni  Ni128  1  0.11111111  0.66666667  0.07752764  1.0
  Ni  Ni129  1  0.44444444  0.00000000  0.07752764  1.0
  Ni  Ni130  1  0.44444444  0.33333333  0.07752764  1.0
  Ni  Ni131  1  0.44444444  0.66666667  0.07752764  1.0
  Ni  Ni132  1  0.77777778  0.00000000  0.07752764  1.0
  Ni  Ni133  1  0.77777778  0.33333333  0.07752764  1.0
  Ni  Ni134  1  0.77777778  0.66666667  0.07752764  1.0
  Ni  Ni135  1  0.27777778  0.16666667  0.01502764  1.0
  Ni  Ni136  1  0.27777778  0.50000000  0.01502764  1.0
  Ni  Ni137  1  0.27777778  0.83333333  0.01502764  1.0
  Ni  Ni138  1  0.61111111  0.16666667  0.01502764  1.0
  Ni  Ni139  1  0.61111111  0.50000000  0.01502764  1.0
  Ni  Ni140  1  0.61111111  0.83333333  0.01502764  1.0
  Ni  Ni141  1  0.94444444  0.16666667  0.01502764  1.0
  Ni  Ni142  1  0.94444444  0.50000000  0.01502764  1.0
  Ni  Ni143  1  0.94444444  0.83333333  0.01502764  1.0
  Ti  Ti144  1  0.13782692  0.08014742  0.17008292  1.0
  Ti  Ti145  1  0.13782692  0.41348075  0.17008292  1.0
  Ti  Ti146  1  0.13782692  0.74681408  0.17008292  1.0
  Ti  Ti147  1  0.47116025  0.08014742  0.17008292  1.0
  Ti  Ti148  1  0.47116025  0.41348075  0.17008292  1.0
  Ti  Ti149  1  0.47116025  0.74681408  0.17008292  1.0
  Ti  Ti150  1  0.80449358  0.08014742  0.17008292  1.0
  Ti  Ti151  1  0.80449358  0.41348075  0.17008292  1.0
  Ti  Ti152  1  0.80449358  0.74681408  0.17008292  1.0
  Ti  Ti153  1  0.30449358  0.24681408  0.23258292  1.0
  Ti  Ti154  1  0.30449358  0.58014742  0.23258292  1.0
  Ti  Ti155  1  0.30449358  0.91348075  0.23258292  1.0
  Ti  Ti156  1  0.63782692  0.24681408  0.23258292  1.0
  Ti  Ti157  1  0.63782692  0.58014742  0.23258292  1.0
  Ti  Ti158  1  0.63782692  0.91348075  0.23258292  1.0
  Ti  Ti159  1  0.97116025  0.24681408  0.23258292  1.0
  Ti  Ti160  1  0.97116025  0.58014742  0.23258292  1.0
  Ti  Ti161  1  0.97116025  0.91348075  0.23258292  1.0
  Ti  Ti162  1  0.10898717  0.16666667  0.14002764  1.0
  Ti  Ti163  1  0.10898717  0.50000000  0.14002764  1.0
  Ti  Ti164  1  0.10898717  0.83333333  0.14002764  1.0
  Ti  Ti165  1  0.44232050  0.16666667  0.14002764  1.0
  Ti  Ti166  1  0.44232050  0.50000000  0.14002764  1.0
  Ti  Ti167  1  0.44232050  0.83333333  0.14002764  1.0
  Ti  Ti168  1  0.77565383  0.16666667  0.14002764  1.0
  Ti  Ti169  1  0.77565383  0.50000000  0.14002764  1.0
  Ti  Ti170  1  0.77565383  0.83333333  0.14002764  1.0
  Ti  Ti171  1  0.27565383  0.00000000  0.20252764  1.0
  Ti  Ti172  1  0.27565383  0.33333333  0.20252764  1.0
  Ti  Ti173  1  0.27565383  0.66666667  0.20252764  1.0
  Ti  Ti174  1  0.60898717  0.00000000  0.20252764  1.0
  Ti  Ti175  1  0.60898717  0.33333333  0.20252764  1.0
  Ti  Ti176  1  0.60898717  0.66666667  0.20252764  1.0
  Ti  Ti177  1  0.94232050  0.00000000  0.20252764  1.0
  Ti  Ti178  1  0.94232050  0.33333333  0.20252764  1.0
  Ti  Ti179  1  0.94232050  0.66666667  0.20252764  1.0
  Ti  Ti180  1  0.02883975  0.24681408  0.17008292  1.0
  Ti  Ti181  1  0.02883975  0.58014742  0.17008292  1.0
  Ti  Ti182  1  0.02883975  0.91348075  0.17008292  1.0
  Ti  Ti183  1  0.36217308  0.24681408  0.17008292  1.0
  Ti  Ti184  1  0.36217308  0.58014742  0.17008292  1.0
  Ti  Ti185  1  0.36217308  0.91348075  0.17008292  1.0
  Ti  Ti186  1  0.69550642  0.24681408  0.17008292  1.0
  Ti  Ti187  1  0.69550642  0.58014742  0.17008292  1.0
  Ti  Ti188  1  0.69550642  0.91348075  0.17008292  1.0
  Ti  Ti189  1  0.19550642  0.08014742  0.23258292  1.0
  Ti  Ti190  1  0.19550642  0.41348075  0.23258292  1.0
  Ti  Ti191  1  0.19550642  0.74681408  0.23258292  1.0
  Ti  Ti192  1  0.52883975  0.08014742  0.23258292  1.0
  Ti  Ti193  1  0.52883975  0.41348075  0.23258292  1.0
  Ti  Ti194  1  0.52883975  0.74681408  0.23258292  1.0
  Ti  Ti195  1  0.86217308  0.08014742  0.23258292  1.0
  Ti  Ti196  1  0.86217308  0.41348075  0.23258292  1.0
  Ti  Ti197  1  0.86217308  0.74681408  0.23258292  1.0
  Ti  Ti198  1  0.02883975  0.08651925  0.23497236  1.0
  Ti  Ti199  1  0.02883975  0.41985258  0.23497236  1.0
  Ti  Ti200  1  0.02883975  0.75318592  0.23497236  1.0
  Ti  Ti201  1  0.36217308  0.08651925  0.23497236  1.0
  Ti  Ti202  1  0.36217308  0.41985258  0.23497236  1.0
  Ti  Ti203  1  0.36217308  0.75318592  0.23497236  1.0
  Ti  Ti204  1  0.69550642  0.08651925  0.23497236  1.0
  Ti  Ti205  1  0.69550642  0.41985258  0.23497236  1.0
  Ti  Ti206  1  0.69550642  0.75318592  0.23497236  1.0
  Ti  Ti207  1  0.19550642  0.25318592  0.17247236  1.0
  Ti  Ti208  1  0.19550642  0.58651925  0.17247236  1.0
  Ti  Ti209  1  0.19550642  0.91985258  0.17247236  1.0
  Ti  Ti210  1  0.52883975  0.25318592  0.17247236  1.0
  Ti  Ti211  1  0.52883975  0.58651925  0.17247236  1.0
  Ti  Ti212  1  0.52883975  0.91985258  0.17247236  1.0
  Ti  Ti213  1  0.86217308  0.25318592  0.17247236  1.0
  Ti  Ti214  1  0.86217308  0.58651925  0.17247236  1.0
  Ti  Ti215  1  0.86217308  0.91985258  0.17247236  1.0
  Ti  Ti216  1  0.05767950  0.00000000  0.14002764  1.0
  Ti  Ti217  1  0.05767950  0.33333333  0.14002764  1.0
  Ti  Ti218  1  0.05767950  0.66666667  0.14002764  1.0
  Ti  Ti219  1  0.39101283  0.00000000  0.14002764  1.0
  Ti  Ti220  1  0.39101283  0.33333333  0.14002764  1.0
  Ti  Ti221  1  0.39101283  0.66666667  0.14002764  1.0
  Ti  Ti222  1  0.72434617  0.00000000  0.14002764  1.0
  Ti  Ti223  1  0.72434617  0.33333333  0.14002764  1.0
  Ti  Ti224  1  0.72434617  0.66666667  0.14002764  1.0
  Ti  Ti225  1  0.22434617  0.16666667  0.20252764  1.0
  Ti  Ti226  1  0.22434617  0.50000000  0.20252764  1.0
  Ti  Ti227  1  0.22434617  0.83333333  0.20252764  1.0
  Ti  Ti228  1  0.55767950  0.16666667  0.20252764  1.0
  Ti  Ti229  1  0.55767950  0.50000000  0.20252764  1.0
  Ti  Ti230  1  0.55767950  0.83333333  0.20252764  1.0
  Ti  Ti231  1  0.89101283  0.16666667  0.20252764  1.0
  Ti  Ti232  1  0.89101283  0.50000000  0.20252764  1.0
  Ti  Ti233  1  0.89101283  0.83333333  0.20252764  1.0
  Ti  Ti234  1  0.13782692  0.25318592  0.23497236  1.0
  Ti  Ti235  1  0.13782692  0.58651925  0.23497236  1.0
  Ti  Ti236  1  0.13782692  0.91985258  0.23497236  1.0
  Ti  Ti237  1  0.47116025  0.25318592  0.23497236  1.0
  Ti  Ti238  1  0.47116025  0.58651925  0.23497236  1.0
  Ti  Ti239  1  0.47116025  0.91985258  0.23497236  1.0
  Ti  Ti240  1  0.80449358  0.25318592  0.23497236  1.0
  Ti  Ti241  1  0.80449358  0.58651925  0.23497236  1.0
  Ti  Ti242  1  0.80449358  0.91985258  0.23497236  1.0
  Ti  Ti243  1  0.30449358  0.08651925  0.17247236  1.0
  Ti  Ti244  1  0.30449358  0.41985258  0.17247236  1.0
  Ti  Ti245  1  0.30449358  0.75318592  0.17247236  1.0
  Ti  Ti246  1  0.63782692  0.08651925  0.17247236  1.0
  Ti  Ti247  1  0.63782692  0.41985258  0.17247236  1.0
  Ti  Ti248  1  0.63782692  0.75318592  0.17247236  1.0
  Ti  Ti249  1  0.97116025  0.08651925  0.17247236  1.0
  Ti  Ti250  1  0.97116025  0.41985258  0.17247236  1.0
  Ti  Ti251  1  0.97116025  0.75318592  0.17247236  1.0
  Ni  Ni252  1  0.05555556  0.16666667  0.20252764  1.0
  Ni  Ni253  1  0.05555556  0.50000000  0.20252764  1.0
  Ni  Ni254  1  0.05555556  0.83333333  0.20252764  1.0
  Ni  Ni255  1  0.38888889  0.16666667  0.20252764  1.0
  Ni  Ni256  1  0.38888889  0.50000000  0.20252764  1.0
  Ni  Ni257  1  0.38888889  0.83333333  0.20252764  1.0
  Ni  Ni258  1  0.72222222  0.16666667  0.20252764  1.0
  Ni  Ni259  1  0.72222222  0.50000000  0.20252764  1.0
  Ni  Ni260  1  0.72222222  0.83333333  0.20252764  1.0
  Ni  Ni261  1  0.22222222  0.00000000  0.14002764  1.0
  Ni  Ni262  1  0.22222222  0.33333333  0.14002764  1.0
  Ni  Ni263  1  0.22222222  0.66666667  0.14002764  1.0
  Ni  Ni264  1  0.55555556  0.00000000  0.14002764  1.0
  Ni  Ni265  1  0.55555556  0.33333333  0.14002764  1.0
  Ni  Ni266  1  0.55555556  0.66666667  0.14002764  1.0
  Ni  Ni267  1  0.88888889  0.00000000  0.14002764  1.0
  Ni  Ni268  1  0.88888889  0.33333333  0.14002764  1.0
  Ni  Ni269  1  0.88888889  0.66666667  0.14002764  1.0
  Ni  Ni270  1  0.11111111  0.00000000  0.20252764  1.0
  Ni  Ni271  1  0.11111111  0.33333333  0.20252764  1.0
  Ni  Ni272  1  0.11111111  0.66666667  0.20252764  1.0
  Ni  Ni273  1  0.44444444  0.00000000  0.20252764  1.0
  Ni  Ni274  1  0.44444444  0.33333333  0.20252764  1.0
  Ni  Ni275  1  0.44444444  0.66666667  0.20252764  1.0
  Ni  Ni276  1  0.77777778  0.00000000  0.20252764  1.0
  Ni  Ni277  1  0.77777778  0.33333333  0.20252764  1.0
  Ni  Ni278  1  0.77777778  0.66666667  0.20252764  1.0
  Ni  Ni279  1  0.27777778  0.16666667  0.14002764  1.0
  Ni  Ni280  1  0.27777778  0.50000000  0.14002764  1.0
  Ni  Ni281  1  0.27777778  0.83333333  0.14002764  1.0
  Ni  Ni282  1  0.61111111  0.16666667  0.14002764  1.0
  Ni  Ni283  1  0.61111111  0.50000000  0.14002764  1.0
  Ni  Ni284  1  0.61111111  0.83333333  0.14002764  1.0
  Ni  Ni285  1  0.94444444  0.16666667  0.14002764  1.0
  Ni  Ni286  1  0.94444444  0.50000000  0.14002764  1.0
  Ni  Ni287  1  0.94444444  0.83333333  0.14002764  1.0
  Ti  Ti288  1  0.13782692  0.08014742  0.29508292  1.0
  Ti  Ti289  1  0.13782692  0.41348075  0.29508292  1.0
  Ti  Ti290  1  0.13782692  0.74681408  0.29508292  1.0
  Ti  Ti291  1  0.47116025  0.08014742  0.29508292  1.0
  Ti  Ti292  1  0.47116025  0.41348075  0.29508292  1.0
  Ti  Ti293  1  0.47116025  0.74681408  0.29508292  1.0
  Ti  Ti294  1  0.80449358  0.08014742  0.29508292  1.0
  Ti  Ti295  1  0.80449358  0.41348075  0.29508292  1.0
  Ti  Ti296  1  0.80449358  0.74681408  0.29508292  1.0
  Ti  Ti297  1  0.30449358  0.24681408  0.35758292  1.0
  Ti  Ti298  1  0.30449358  0.58014742  0.35758292  1.0
  Ti  Ti299  1  0.30449358  0.91348075  0.35758292  1.0
  Ti  Ti300  1  0.63782692  0.24681408  0.35758292  1.0
  Ti  Ti301  1  0.63782692  0.58014742  0.35758292  1.0
  Ti  Ti302  1  0.63782692  0.91348075  0.35758292  1.0
  Ti  Ti303  1  0.97116025  0.24681408  0.35758292  1.0
  Ti  Ti304  1  0.97116025  0.58014742  0.35758292  1.0
  Ti  Ti305  1  0.97116025  0.91348075  0.35758292  1.0
  Ti  Ti306  1  0.10898717  0.16666667  0.26502764  1.0
  Ti  Ti307  1  0.10898717  0.50000000  0.26502764  1.0
  Ti  Ti308  1  0.10898717  0.83333333  0.26502764  1.0
  Ti  Ti309  1  0.44232050  0.16666667  0.26502764  1.0
  Ti  Ti310  1  0.44232050  0.50000000  0.26502764  1.0
  Ti  Ti311  1  0.44232050  0.83333333  0.26502764  1.0
  Ti  Ti312  1  0.77565383  0.16666667  0.26502764  1.0
  Ti  Ti313  1  0.77565383  0.50000000  0.26502764  1.0
  Ti  Ti314  1  0.77565383  0.83333333  0.26502764  1.0
  Ti  Ti315  1  0.27565383  0.00000000  0.32752764  1.0
  Ti  Ti316  1  0.27565383  0.33333333  0.32752764  1.0
  Ti  Ti317  1  0.27565383  0.66666667  0.32752764  1.0
  Ti  Ti318  1  0.60898717  0.00000000  0.32752764  1.0
  Ti  Ti319  1  0.60898717  0.33333333  0.32752764  1.0
  Ti  Ti320  1  0.60898717  0.66666667  0.32752764  1.0
  Ti  Ti321  1  0.94232050  0.00000000  0.32752764  1.0
  Ti  Ti322  1  0.94232050  0.33333333  0.32752764  1.0
  Ti  Ti323  1  0.94232050  0.66666667  0.32752764  1.0
  Ti  Ti324  1  0.02883975  0.24681408  0.29508292  1.0
  Ti  Ti325  1  0.02883975  0.58014742  0.29508292  1.0
  Ti  Ti326  1  0.02883975  0.91348075  0.29508292  1.0
  Ti  Ti327  1  0.36217308  0.24681408  0.29508292  1.0
  Ti  Ti328  1  0.36217308  0.58014742  0.29508292  1.0
  Ti  Ti329  1  0.36217308  0.91348075  0.29508292  1.0
  Ti  Ti330  1  0.69550642  0.24681408  0.29508292  1.0
  Ti  Ti331  1  0.69550642  0.58014742  0.29508292  1.0
  Ti  Ti332  1  0.69550642  0.91348075  0.29508292  1.0
  Ti  Ti333  1  0.19550642  0.08014742  0.35758292  1.0
  Ti  Ti334  1  0.19550642  0.41348075  0.35758292  1.0
  Ti  Ti335  1  0.19550642  0.74681408  0.35758292  1.0
  Ti  Ti336  1  0.52883975  0.08014742  0.35758292  1.0
  Ti  Ti337  1  0.52883975  0.41348075  0.35758292  1.0
  Ti  Ti338  1  0.52883975  0.74681408  0.35758292  1.0
  Ti  Ti339  1  0.86217308  0.08014742  0.35758292  1.0
  Ti  Ti340  1  0.86217308  0.41348075  0.35758292  1.0
  Ti  Ti341  1  0.86217308  0.74681408  0.35758292  1.0
  Ti  Ti342  1  0.02883975  0.08651925  0.35997236  1.0
  Ti  Ti343  1  0.02883975  0.41985258  0.35997236  1.0
  Ti  Ti344  1  0.02883975  0.75318592  0.35997236  1.0
  Ti  Ti345  1  0.36217308  0.08651925  0.35997236  1.0
  Ti  Ti346  1  0.36217308  0.41985258  0.35997236  1.0
  Ti  Ti347  1  0.36217308  0.75318592  0.35997236  1.0
  Ti  Ti348  1  0.69550642  0.08651925  0.35997236  1.0
  Ti  Ti349  1  0.69550642  0.41985258  0.35997236  1.0
  Ti  Ti350  1  0.69550642  0.75318592  0.35997236  1.0
  Ti  Ti351  1  0.19550642  0.25318592  0.29747236  1.0
  Ti  Ti352  1  0.19550642  0.58651925  0.29747236  1.0
  Ti  Ti353  1  0.19550642  0.91985258  0.29747236  1.0
  Ti  Ti354  1  0.52883975  0.25318592  0.29747236  1.0
  Ti  Ti355  1  0.52883975  0.58651925  0.29747236  1.0
  Ti  Ti356  1  0.52883975  0.91985258  0.29747236  1.0
  Ti  Ti357  1  0.86217308  0.25318592  0.29747236  1.0
  Ti  Ti358  1  0.86217308  0.58651925  0.29747236  1.0
  Ti  Ti359  1  0.86217308  0.91985258  0.29747236  1.0
  Ti  Ti360  1  0.05767950  0.00000000  0.26502764  1.0
  Ti  Ti361  1  0.05767950  0.33333333  0.26502764  1.0
  Ti  Ti362  1  0.05767950  0.66666667  0.26502764  1.0
  Ti  Ti363  1  0.39101283  0.00000000  0.26502764  1.0
  Ti  Ti364  1  0.39101283  0.33333333  0.26502764  1.0
  Ti  Ti365  1  0.39101283  0.66666667  0.26502764  1.0
  Ti  Ti366  1  0.72434617  0.00000000  0.26502764  1.0
  Ti  Ti367  1  0.72434617  0.33333333  0.26502764  1.0
  Ti  Ti368  1  0.72434617  0.66666667  0.26502764  1.0
  Ti  Ti369  1  0.22434617  0.16666667  0.32752764  1.0
  Ti  Ti370  1  0.22434617  0.50000000  0.32752764  1.0
  Ti  Ti371  1  0.22434617  0.83333333  0.32752764  1.0
  Ti  Ti372  1  0.55767950  0.16666667  0.32752764  1.0
  Ti  Ti373  1  0.55767950  0.50000000  0.32752764  1.0
  Ti  Ti374  1  0.55767950  0.83333333  0.32752764  1.0
  Ti  Ti375  1  0.89101283  0.16666667  0.32752764  1.0
  Ti  Ti376  1  0.89101283  0.50000000  0.32752764  1.0
  Ti  Ti377  1  0.89101283  0.83333333  0.32752764  1.0
  Ti  Ti378  1  0.13782692  0.25318592  0.35997236  1.0
  Ti  Ti379  1  0.13782692  0.58651925  0.35997236  1.0
  Ti  Ti380  1  0.13782692  0.91985258  0.35997236  1.0
  Ti  Ti381  1  0.47116025  0.25318592  0.35997236  1.0
  Ti  Ti382  1  0.47116025  0.58651925  0.35997236  1.0
  Ti  Ti383  1  0.47116025  0.91985258  0.35997236  1.0
  Ti  Ti384  1  0.80449358  0.25318592  0.35997236  1.0
  Ti  Ti385  1  0.80449358  0.58651925  0.35997236  1.0
  Ti  Ti386  1  0.80449358  0.91985258  0.35997236  1.0
  Ti  Ti387  1  0.30449358  0.08651925  0.29747236  1.0
  Ti  Ti388  1  0.30449358  0.41985258  0.29747236  1.0
  Ti  Ti389  1  0.30449358  0.75318592  0.29747236  1.0
  Ti  Ti390  1  0.63782692  0.08651925  0.29747236  1.0
  Ti  Ti391  1  0.63782692  0.41985258  0.29747236  1.0
  Ti  Ti392  1  0.63782692  0.75318592  0.29747236  1.0
  Ti  Ti393  1  0.97116025  0.08651925  0.29747236  1.0
  Ti  Ti394  1  0.97116025  0.41985258  0.29747236  1.0
  Ti  Ti395  1  0.97116025  0.75318592  0.29747236  1.0
  Ni  Ni396  1  0.05555556  0.16666667  0.32752764  1.0
  Ni  Ni397  1  0.05555556  0.50000000  0.32752764  1.0
  Ni  Ni398  1  0.05555556  0.83333333  0.32752764  1.0
  Ni  Ni399  1  0.38888889  0.16666667  0.32752764  1.0
  Ni  Ni400  1  0.38888889  0.50000000  0.32752764  1.0
  Ni  Ni401  1  0.38888889  0.83333333  0.32752764  1.0
  Ni  Ni402  1  0.72222222  0.16666667  0.32752764  1.0
  Ni  Ni403  1  0.72222222  0.50000000  0.32752764  1.0
  Ni  Ni404  1  0.72222222  0.83333333  0.32752764  1.0
  Ni  Ni405  1  0.22222222  0.00000000  0.26502764  1.0
  Ni  Ni406  1  0.22222222  0.33333333  0.26502764  1.0
  Ni  Ni407  1  0.22222222  0.66666667  0.26502764  1.0
  Ni  Ni408  1  0.55555556  0.00000000  0.26502764  1.0
  Ni  Ni409  1  0.55555556  0.33333333  0.26502764  1.0
  Ni  Ni410  1  0.55555556  0.66666667  0.26502764  1.0
  Ni  Ni411  1  0.88888889  0.00000000  0.26502764  1.0
  Ni  Ni412  1  0.88888889  0.33333333  0.26502764  1.0
  Ni  Ni413  1  0.88888889  0.66666667  0.26502764  1.0
  Ni  Ni414  1  0.11111111  0.00000000  0.32752764  1.0
  Ni  Ni415  1  0.11111111  0.33333333  0.32752764  1.0
  Ni  Ni416  1  0.11111111  0.66666667  0.32752764  1.0
  Ni  Ni417  1  0.44444444  0.00000000  0.32752764  1.0
  Ni  Ni418  1  0.44444444  0.33333333  0.32752764  1.0
  Ni  Ni419  1  0.44444444  0.66666667  0.32752764  1.0
  Ni  Ni420  1  0.77777778  0.00000000  0.32752764  1.0
  Ni  Ni421  1  0.77777778  0.33333333  0.32752764  1.0
  Ni  Ni422  1  0.77777778  0.66666667  0.32752764  1.0
  Ni  Ni423  1  0.27777778  0.16666667  0.26502764  1.0
  Ni  Ni424  1  0.27777778  0.50000000  0.26502764  1.0
  Ni  Ni425  1  0.27777778  0.83333333  0.26502764  1.0
  Ni  Ni426  1  0.61111111  0.16666667  0.26502764  1.0
  Ni  Ni427  1  0.61111111  0.50000000  0.26502764  1.0
  Ni  Ni428  1  0.61111111  0.83333333  0.26502764  1.0
  Ni  Ni429  1  0.94444444  0.16666667  0.26502764  1.0
  Ni  Ni430  1  0.94444444  0.50000000  0.26502764  1.0
  Ni  Ni431  1  0.94444444  0.83333333  0.26502764  1.0
