# generated using pymatgen
data_Ti3Ni
_symmetry_space_group_name_H-M   'P 1'
_cell_length_a   28.29830902
_cell_length_b   32.20204890
_cell_length_c   54.46012110
_cell_angle_alpha   120.48815003
_cell_angle_beta   150.00000000
_cell_angle_gamma   63.93523829
_symmetry_Int_Tables_number   1
_chemical_formula_structural   Ti3Ni
_chemical_formula_sum   'Ti432 Ni144'
_cell_volume   21382.86439513
_cell_formula_units_Z   144
loop_
 _symmetry_equiv_pos_site_id
 _symmetry_equiv_pos_as_xyz
  1  'x, y, z'
loop_
 _atom_site_type_symbol
 _atom_site_label
 _atom_site_symmetry_multiplicity
 _atom_site_fract_x
 _atom_site_fract_y
 _atom_site_fract_z
 _atom_site_occupancy
  Ti  Ti0  1  0.05767950  0.12500000  0.08941155  1.0
  Ti  Ti1  1  0.05767950  0.45833333  0.08941155  1.0
  Ti  Ti2  1  0.05767950  0.79166667  0.08941155  1.0
  Ti  Ti3  1  0.39101283  0.12500000  0.08941155  1.0
  Ti  Ti4  1  0.39101283  0.45833333  0.08941155  1.0
  Ti  Ti5  1  0.39101283  0.79166667  0.08941155  1.0
  Ti  Ti6  1  0.72434617  0.12500000  0.08941155  1.0
  Ti  Ti7  1  0.72434617  0.45833333  0.08941155  1.0
  Ti  Ti8  1  0.72434617  0.79166667  0.08941155  1.0
  Ti  Ti9  1  0.05767950  0.29166667  0.03941155  1.0
  Ti  Ti10  1  0.05767950  0.62500000  0.03941155  1.0
  Ti  Ti11  1  0.05767950  0.95833333  0.03941155  1.0
  Ti  Ti12  1  0.39101283  0.29166667  0.03941155  1.0
  Ti  Ti13  1  0.39101283  0.62500000  0.03941155  1.0
  Ti  Ti14  1  0.39101283  0.95833333  0.03941155  1.0
  Ti  Ti15  1  0.72434617  0.29166667  0.03941155  1.0
  Ti  Ti16  1  0.72434617  0.62500000  0.03941155  1.0
  Ti  Ti17  1  0.72434617  0.95833333  0.03941155  1.0
  Ti  Ti18  1  0.11535900  0.04166667  0.06441155  1.0
  Ti  Ti19  1  0.11535900  0.37500000  0.06441155  1.0
  Ti  Ti20  1  0.11535900  0.70833333  0.06441155  1.0
  Ti  Ti21  1  0.44869233  0.04166667  0.06441155  1.0
  Ti  Ti22  1  0.44869233  0.37500000  0.06441155  1.0
  Ti  Ti23  1  0.44869233  0.70833333  0.06441155  1.0
  Ti  Ti24  1  0.78202567  0.04166667  0.06441155  1.0
  Ti  Ti25  1  0.78202567  0.37500000  0.06441155  1.0
  Ti  Ti26  1  0.78202567  0.70833333  0.06441155  1.0
  Ti  Ti27  1  0.11535900  0.20833333  0.01441155  1.0
  Ti  Ti28  1  0.11535900  0.54166667  0.01441155  1.0
  Ti  Ti29  1  0.11535900  0.87500000  0.01441155  1.0
  Ti  Ti30  1  0.44869233  0.20833333  0.01441155  1.0
  Ti  Ti31  1  0.44869233  0.54166667  0.01441155  1.0
  Ti  Ti32  1  0.44869233  0.87500000  0.01441155  1.0
  Ti  Ti33  1  0.78202567  0.20833333  0.01441155  1.0
  Ti  Ti34  1  0.78202567  0.54166667  0.01441155  1.0
  Ti  Ti35  1  0.78202567  0.87500000  0.01441155  1.0
  Ti  Ti36  1  0.27565383  0.04166667  0.01250000  1.0
  Ti  Ti37  1  0.27565383  0.37500000  0.01250000  1.0
  Ti  Ti38  1  0.27565383  0.70833333  0.01250000  1.0
  Ti  Ti39  1  0.60898717  0.04166667  0.01250000  1.0
  Ti  Ti40  1  0.60898717  0.37500000  0.01250000  1.0
  Ti  Ti41  1  0.60898717  0.70833333  0.01250000  1.0
  Ti  Ti42  1  0.94232050  0.04166667  0.01250000  1.0
  Ti  Ti43  1  0.94232050  0.37500000  0.01250000  1.0
  Ti  Ti44  1  0.94232050  0.70833333  0.01250000  1.0
  Ti  Ti45  1  0.27565383  0.20833333  0.06250000  1.0
  Ti  Ti46  1  0.27565383  0.54166667  0.06250000  1.0
  Ti  Ti47  1  0.27565383  0.87500000  0.06250000  1.0
  Ti  Ti48  1  0.60898717  0.20833333  0.06250000  1.0
  Ti  Ti49  1  0.60898717  0.54166667  0.06250000  1.0
  Ti  Ti50  1  0.60898717  0.87500000  0.06250000  1.0
  Ti  Ti51  1  0.94232050  0.20833333  0.06250000  1.0
  Ti  Ti52  1  0.94232050  0.54166667  0.06250000  1.0
  Ti  Ti53  1  0.94232050  0.87500000  0.06250000  1.0
  Ti  Ti54  1  0.27565383  0.04166667  0.06058845  1.0
  Ti  Ti55  1  0.27565383  0.37500000  0.06058845  1.0
  Ti  Ti56  1  0.27565383  0.70833333  0.06058845  1.0
  Ti  Ti57  1  0.60898717  0.04166667  0.06058845  1.0
  Ti  Ti58  1  0.60898717  0.37500000  0.06058845  1.0
  Ti  Ti59  1  0.60898717  0.70833333  0.06058845  1.0
  Ti  Ti60  1  0.94232050  0.04166667  0.06058845  1.0
  Ti  Ti61  1  0.94232050  0.37500000  0.06058845  1.0
  Ti  Ti62  1  0.94232050  0.70833333  0.06058845  1.0
  Ti  Ti63  1  0.27565383  0.20833333  0.01058845  1.0
  Ti  Ti64  1  0.27565383  0.54166667  0.01058845  1.0
  Ti  Ti65  1  0.27565383  0.87500000  0.01058845  1.0
  Ti  Ti66  1  0.60898717  0.20833333  0.01058845  1.0
  Ti  Ti67  1  0.60898717  0.54166667  0.01058845  1.0
  Ti  Ti68  1  0.60898717  0.87500000  0.01058845  1.0
  Ti  Ti69  1  0.94232050  0.20833333  0.01058845  1.0
  Ti  Ti70  1  0.94232050  0.54166667  0.01058845  1.0
  Ti  Ti71  1  0.94232050  0.87500000  0.01058845  1.0
  Ti  Ti72  1  0.21797433  0.12500000  0.08558845  1.0
  Ti  Ti73  1  0.21797433  0.45833333  0.08558845  1.0
  Ti  Ti74  1  0.21797433  0.79166667  0.08558845  1.0
  Ti  Ti75  1  0.55130767  0.12500000  0.08558845  1.0
  Ti  Ti76  1  0.55130767  0.45833333  0.08558845  1.0
  Ti  Ti77  1  0.55130767  0.79166667  0.08558845  1.0
  Ti  Ti78  1  0.88464100  0.12500000  0.08558845  1.0
  Ti  Ti79  1  0.88464100  0.45833333  0.08558845  1.0
  Ti  Ti80  1  0.88464100  0.79166667  0.08558845  1.0
  Ti  Ti81  1  0.21797433  0.29166667  0.03558845  1.0
  Ti  Ti82  1  0.21797433  0.62500000  0.03558845  1.0
  Ti  Ti83  1  0.21797433  0.95833333  0.03558845  1.0
  Ti  Ti84  1  0.55130767  0.29166667  0.03558845  1.0
  Ti  Ti85  1  0.55130767  0.62500000  0.03558845  1.0
  Ti  Ti86  1  0.55130767  0.95833333  0.03558845  1.0
  Ti  Ti87  1  0.88464100  0.29166667  0.03558845  1.0
  Ti  Ti88  1  0.88464100  0.62500000  0.03558845  1.0
  Ti  Ti89  1  0.88464100  0.95833333  0.03558845  1.0
  Ti  Ti90  1  0.05767950  0.12500000  0.03750000  1.0
  Ti  Ti91  1  0.05767950  0.45833333  0.03750000  1.0
  Ti  Ti92  1  0.05767950  0.79166667  0.03750000  1.0
  Ti  Ti93  1  0.39101283  0.12500000  0.03750000  1.0
  Ti  Ti94  1  0.39101283  0.45833333  0.03750000  1.0
  Ti  Ti95  1  0.39101283  0.79166667  0.03750000  1.0
  Ti  Ti96  1  0.72434617  0.12500000  0.03750000  1.0
  Ti  Ti97  1  0.72434617  0.45833333  0.03750000  1.0
  Ti  Ti98  1  0.72434617  0.79166667  0.03750000  1.0
  Ti  Ti99  1  0.05767950  0.29166667  0.08750000  1.0
  Ti  Ti100  1  0.05767950  0.62500000  0.08750000  1.0
  Ti  Ti101  1  0.05767950  0.95833333  0.08750000  1.0
  Ti  Ti102  1  0.39101283  0.29166667  0.08750000  1.0
  Ti  Ti103  1  0.39101283  0.62500000  0.08750000  1.0
  Ti  Ti104  1  0.39101283  0.95833333  0.08750000  1.0
  Ti  Ti105  1  0.72434617  0.29166667  0.08750000  1.0
  Ti  Ti106  1  0.72434617  0.62500000  0.08750000  1.0
  Ti  Ti107  1  0.72434617  0.95833333  0.08750000  1.0
  Ni  Ni108  1  0.22222222  0.12500000  0.03750000  1.0
  Ni  Ni109  1  0.22222222  0.45833333  0.03750000  1.0
  Ni  Ni110  1  0.22222222  0.79166667  0.03750000  1.0
  Ni  Ni111  1  0.55555556  0.12500000  0.03750000  1.0
  Ni  Ni112  1  0.55555556  0.45833333  0.03750000  1.0
  Ni  Ni113  1  0.55555556  0.79166667  0.03750000  1.0
  Ni  Ni114  1  0.88888889  0.12500000  0.03750000  1.0
  Ni  Ni115  1  0.88888889  0.45833333  0.03750000  1.0
  Ni  Ni116  1  0.88888889  0.79166667  0.03750000  1.0
  Ni  Ni117  1  0.22222222  0.29166667  0.08750000  1.0
  Ni  Ni118  1  0.22222222  0.62500000  0.08750000  1.0
  Ni  Ni119  1  0.22222222  0.95833333  0.08750000  1.0
  Ni  Ni120  1  0.55555556  0.29166667  0.08750000  1.0
  Ni  Ni121  1  0.55555556  0.62500000  0.08750000  1.0
  Ni  Ni122  1  0.55555556  0.95833333  0.08750000  1.0
  Ni  Ni123  1  0.88888889  0.29166667  0.08750000  1.0
  Ni  Ni124  1  0.88888889  0.62500000  0.08750000  1.0
  Ni  Ni125  1  0.88888889  0.95833333  0.08750000  1.0
  Ni  Ni126  1  0.11111111  0.04166667  0.01250000  1.0
  Ni  Ni127  1  0.11111111  0.37500000  0.01250000  1.0
  Ni  Ni128  1  0.11111111  0.70833333  0.01250000  1.0
  Ni  Ni129  1  0.44444444  0.04166667  0.01250000  1.0
  Ni  Ni130  1  0.44444444  0.37500000  0.01250000  1.0
  Ni  Ni131  1  0.44444444  0.70833333  0.01250000  1.0
  Ni  Ni132  1  0.77777778  0.04166667  0.01250000  1.0
  Ni  Ni133  1  0.77777778  0.37500000  0.01250000  1.0
  Ni  Ni134  1  0.77777778  0.70833333  0.01250000  1.0
  Ni  Ni135  1  0.11111111  0.20833333  0.06250000  1.0
  Ni  Ni136  1  0.11111111  0.54166667  0.06250000  1.0
  Ni  Ni137  1  0.11111111  0.87500000  0.06250000  1.0
  Ni  Ni138  1  0.44444444  0.20833333  0.06250000  1.0
  Ni  Ni139  1  0.44444444  0.54166667  0.06250000  1.0
  Ni  Ni140  1  0.44444444  0.87500000  0.06250000  1.0
  Ni  Ni141  1  0.77777778  0.20833333  0.06250000  1.0
  Ni  Ni142  1  0.77777778  0.54166667  0.06250000  1.0
  Ni  Ni143  1  0.77777778  0.87500000  0.06250000  1.0
  Ti  Ti144  1  0.05767950  0.12500000  0.18941155  1.0
  Ti  Ti145  1  0.05767950  0.45833333  0.18941155  1.0
  Ti  Ti146  1  0.05767950  0.79166667  0.18941155  1.0
  Ti  Ti147  1  0.39101283  0.12500000  0.18941155  1.0
  Ti  Ti148  1  0.39101283  0.45833333  0.18941155  1.0
  Ti  Ti149  1  0.39101283  0.79166667  0.18941155  1.0
  Ti  Ti150  1  0.72434617  0.12500000  0.18941155  1.0
  Ti  Ti151  1  0.72434617  0.45833333  0.18941155  1.0
  Ti  Ti152  1  0.72434617  0.79166667  0.18941155  1.0
  Ti  Ti153  1  0.05767950  0.29166667  0.13941155  1.0
  Ti  Ti154  1  0.05767950  0.62500000  0.13941155  1.0
  Ti  Ti155  1  0.05767950  0.95833333  0.13941155  1.0
  Ti  Ti156  1  0.39101283  0.29166667  0.13941155  1.0
  Ti  Ti157  1  0.39101283  0.62500000  0.13941155  1.0
  Ti  Ti158  1  0.39101283  0.95833333  0.13941155  1.0
  Ti  Ti159  1  0.72434617  0.29166667  0.13941155  1.0
  Ti  Ti160  1  0.72434617  0.62500000  0.13941155  1.0
  Ti  Ti161  1  0.72434617  0.95833333  0.13941155  1.0
  Ti  Ti162  1  0.11535900  0.04166667  0.16441155  1.0
  Ti  Ti163  1  0.11535900  0.37500000  0.16441155  1.0
  Ti  Ti164  1  0.11535900  0.70833333  0.16441155  1.0
  Ti  Ti165  1  0.44869233  0.04166667  0.16441155  1.0
  Ti  Ti166  1  0.44869233  0.37500000  0.16441155  1.0
  Ti  Ti167  1  0.44869233  0.70833333  0.16441155  1.0
  Ti  Ti168  1  0.78202567  0.04166667  0.16441155  1.0
  Ti  Ti169  1  0.78202567  0.37500000  0.16441155  1.0
  Ti  Ti170  1  0.78202567  0.70833333  0.16441155  1.0
  Ti  Ti171  1  0.11535900  0.20833333  0.11441155  1.0
  Ti  Ti172  1  0.11535900  0.54166667  0.11441155  1.0
  Ti  Ti173  1  0.11535900  0.87500000  0.11441155  1.0
  Ti  Ti174  1  0.44869233  0.20833333  0.11441155  1.0
  Ti  Ti175  1  0.44869233  0.54166667  0.11441155  1.0
  Ti  Ti176  1  0.44869233  0.87500000  0.11441155  1.0
  Ti  Ti177  1  0.78202567  0.20833333  0.11441155  1.0
  Ti  Ti178  1  0.78202567  0.54166667  0.11441155  1.0
  Ti  Ti179  1  0.78202567  0.87500000  0.11441155  1.0
  Ti  Ti180  1  0.27565383  0.04166667  0.11250000  1.0
  Ti  Ti181  1  0.27565383  0.37500000  0.11250000  1.0
  Ti  Ti182  1  0.27565383  0.70833333  0.11250000  1.0
  Ti  Ti183  1  0.60898717  0.04166667  0.11250000  1.0
  Ti  Ti184  1  0.60898717  0.37500000  0.11250000  1.0
  Ti  Ti185  1  0.60898717  0.70833333  0.11250000  1.0
  Ti  Ti186  1  0.94232050  0.04166667  0.11250000  1.0
  Ti  Ti187  1  0.94232050  0.37500000  0.11250000  1.0
  Ti  Ti188  1  0.94232050  0.70833333  0.11250000  1.0
  Ti  Ti189  1  0.27565383  0.20833333  0.16250000  1.0
  Ti  Ti190  1  0.27565383  0.54166667  0.16250000  1.0
  Ti  Ti191  1  0.27565383  0.87500000  0.16250000  1.0
  Ti  Ti192  1  0.60898717  0.20833333  0.16250000  1.0
  Ti  Ti193  1  0.60898717  0.54166667  0.16250000  1.0
  Ti  Ti194  1  0.60898717  0.87500000  0.16250000  1.0
  Ti  Ti195  1  0.94232050  0.20833333  0.16250000  1.0
  Ti  Ti196  1  0.94232050  0.54166667  0.16250000  1.0
  Ti  Ti197  1  0.94232050  0.87500000  0.16250000  1.0
  Ti  Ti198  1  0.27565383  0.04166667  0.16058845  1.0
  Ti  Ti199  1  0.27565383  0.37500000  0.16058845  1.0
  Ti  Ti200  1  0.27565383  0.70833333  0.16058845  1.0
  Ti  Ti201  1  0.60898717  0.04166667  0.16058845  1.0
  Ti  Ti202  1  0.60898717  0.37500000  0.16058845  1.0
  Ti  Ti203  1  0.60898717  0.70833333  0.16058845  1.0
  Ti  Ti204  1  0.94232050  0.04166667  0.16058845  1.0
  Ti  Ti205  1  0.94232050  0.37500000  0.16058845  1.0
  Ti  Ti206  1  0.94232050  0.70833333  0.16058845  1.0
  Ti  Ti207  1  0.27565383  0.20833333  0.11058845  1.0
  Ti  Ti208  1  0.27565383  0.54166667  0.11058845  1.0
  Ti  Ti209  1  0.27565383  0.87500000  0.11058845  1.0
  Ti  Ti210  1  0.60898717  0.20833333  0.11058845  1.0
  Ti  Ti211  1  0.60898717  0.54166667  0.11058845  1.0
  Ti  Ti212  1  0.60898717  0.87500000  0.11058845  1.0
  Ti  Ti213  1  0.94232050  0.20833333  0.11058845  1.0
  Ti  Ti214  1  0.94232050  0.54166667  0.11058845  1.0
  Ti  Ti215  1  0.94232050  0.87500000  0.11058845  1.0
  Ti  Ti216  1  0.21797433  0.12500000  0.18558845  1.0
  Ti  Ti217  1  0.21797433  0.45833333  0.18558845  1.0
  Ti  Ti218  1  0.21797433  0.79166667  0.18558845  1.0
  Ti  Ti219  1  0.55130767  0.12500000  0.18558845  1.0
  Ti  Ti220  1  0.55130767  0.45833333  0.18558845  1.0
  Ti  Ti221  1  0.55130767  0.79166667  0.18558845  1.0
  Ti  Ti222  1  0.88464100  0.12500000  0.18558845  1.0
  Ti  Ti223  1  0.88464100  0.45833333  0.18558845  1.0
  Ti  Ti224  1  0.88464100  0.79166667  0.18558845  1.0
  Ti  Ti225  1  0.21797433  0.29166667  0.13558845  1.0
  Ti  Ti226  1  0.21797433  0.62500000  0.13558845  1.0
  Ti  Ti227  1  0.21797433  0.95833333  0.13558845  1.0
  Ti  Ti228  1  0.55130767  0.29166667  0.13558845  1.0
  Ti  Ti229  1  0.55130767  0.62500000  0.13558845  1.0
  Ti  Ti230  1  0.55130767  0.95833333  0.13558845  1.0
  Ti  Ti231  1  0.88464100  0.29166667  0.13558845  1.0
  Ti  Ti232  1  0.88464100  0.62500000  0.13558845  1.0
  Ti  Ti233  1  0.88464100  0.95833333  0.13558845  1.0
  Ti  Ti234  1  0.05767950  0.12500000  0.13750000  1.0
  Ti  Ti235  1  0.05767950  0.45833333  0.13750000  1.0
  Ti  Ti236  1  0.05767950  0.79166667  0.13750000  1.0
  Ti  Ti237  1  0.39101283  0.12500000  0.13750000  1.0
  Ti  Ti238  1  0.39101283  0.45833333  0.13750000  1.0
  Ti  Ti239  1  0.39101283  0.79166667  0.13750000  1.0
  Ti  Ti240  1  0.72434617  0.12500000  0.13750000  1.0
  Ti  Ti241  1  0.72434617  0.45833333  0.13750000  1.0
  Ti  Ti242  1  0.72434617  0.79166667  0.13750000  1.0
  Ti  Ti243  1  0.05767950  0.29166667  0.18750000  1.0
  Ti  Ti244  1  0.05767950  0.62500000  0.18750000  1.0
  Ti  Ti245  1  0.05767950  0.95833333  0.18750000  1.0
  Ti  Ti246  1  0.39101283  0.29166667  0.18750000  1.0
  Ti  Ti247  1  0.39101283  0.62500000  0.18750000  1.0
  Ti  Ti248  1  0.39101283  0.95833333  0.18750000  1.0
  Ti  Ti249  1  0.72434617  0.29166667  0.18750000  1.0
  Ti  Ti250  1  0.72434617  0.62500000  0.18750000  1.0
  Ti  Ti251  1  0.72434617  0.95833333  0.18750000  1.0
  Ni  Ni252  1  0.22222222  0.12500000  0.13750000  1.0
  Ni  Ni253  1  0.22222222  0.45833333  0.13750000  1.0
  Ni  Ni254  1  0.22222222  0.79166667  0.13750000  1.0
  Ni  Ni255  1  0.55555556  0.12500000  0.13750000  1.0
  Ni  Ni256  1  0.55555556  0.45833333  0.13750000  1.0
  Ni  Ni257  1  0.55555556  0.79166667  0.13750000  1.0
  Ni  Ni258  1  0.88888889  0.12500000  0.13750000  1.0
  Ni  Ni259  1  0.88888889  0.45833333  0.13750000  1.0
  Ni  Ni260  1  0.88888889  0.79166667  0.13750000  1.0
  Ni  Ni261  1  0.22222222  0.29166667  0.18750000  1.0
  Ni  Ni262  1  0.22222222  0.62500000  0.18750000  1.0
  Ni  Ni263  1  0.22222222  0.95833333  0.18750000  1.0
  Ni  Ni264  1  0.55555556  0.29166667  0.18750000  1.0
  Ni  Ni265  1  0.55555556  0.62500000  0.18750000  1.0
  Ni  Ni266  1  0.55555556  0.95833333  0.18750000  1.0
  Ni  Ni267  1  0.88888889  0.29166667  0.18750000  1.0
  Ni  Ni268  1  0.88888889  0.62500000  0.18750000  1.0
  Ni  Ni269  1  0.88888889  0.95833333  0.18750000  1.0
  Ni  Ni270  1  0.11111111  0.04166667  0.11250000  1.0
  Ni  Ni271  1  0.11111111  0.37500000  0.11250000  1.0
  Ni  Ni272  1  0.11111111  0.70833333  0.11250000  1.0
  Ni  Ni273  1  0.44444444  0.04166667  0.11250000  1.0
  Ni  Ni274  1  0.44444444  0.37500000  0.11250000  1.0
  Ni  Ni275  1  0.44444444  0.70833333  0.11250000  1.0
  Ni  Ni276  1  0.77777778  0.04166667  0.11250000  1.0
  Ni  Ni277  1  0.77777778  0.37500000  0.11250000  1.0
  Ni  Ni278  1  0.77777778  0.70833333  0.11250000  1.0
  Ni  Ni279  1  0.11111111  0.20833333  0.16250000  1.0
  Ni  Ni280  1  0.11111111  0.54166667  0.16250000  1.0
  Ni  Ni281  1  0.11111111  0.87500000  0.16250000  1.0
  Ni  Ni282  1  0.44444444  0.20833333  0.16250000  1.0
  Ni  Ni283  1  0.44444444  0.54166667  0.16250000  1.0
  Ni  Ni284  1  0.44444444  0.87500000  0.16250000  1.0
  Ni  Ni285  1  0.77777778  0.20833333  0.16250000  1.0
  Ni  Ni286  1  0.77777778  0.54166667  0.16250000  1.0
  Ni  Ni287  1  0.77777778  0.87500000  0.16250000  1.0
  Ti  Ti288  1  0.05767950  0.12500000  0.28941155  1.0
  Ti  Ti289  1  0.05767950  0.45833333  0.28941155  1.0
  Ti  Ti290  1  0.05767950  0.79166667  0.28941155  1.0
  Ti  Ti291  1  0.39101283  0.12500000  0.28941155  1.0
  Ti  Ti292  1  0.39101283  0.45833333  0.28941155  1.0
  Ti  Ti293  1  0.39101283  0.79166667  0.28941155  1.0
  Ti  Ti294  1  0.72434617  0.12500000  0.28941155  1.0
  Ti  Ti295  1  0.72434617  0.45833333  0.28941155  1.0
  Ti  Ti296  1  0.72434617  0.79166667  0.28941155  1.0
  Ti  Ti297  1  0.05767950  0.29166667  0.23941155  1.0
  Ti  Ti298  1  0.05767950  0.62500000  0.23941155  1.0
  Ti  Ti299  1  0.05767950  0.95833333  0.23941155  1.0
  Ti  Ti300  1  0.39101283  0.29166667  0.23941155  1.0
  Ti  Ti301  1  0.39101283  0.62500000  0.23941155  1.0
  Ti  Ti302  1  0.39101283  0.95833333  0.23941155  1.0
  Ti  Ti303  1  0.72434617  0.29166667  0.23941155  1.0
  Ti  Ti304  1  0.72434617  0.62500000  0.23941155  1.0
  Ti  Ti305  1  0.72434617  0.95833333  0.23941155  1.0
  Ti  Ti306  1  0.11535900  0.04166667  0.26441155  1.0
  Ti  Ti307  1  0.11535900  0.37500000  0.26441155  1.0
  Ti  Ti308  1  0.11535900  0.70833333  0.26441155  1.0
  Ti  Ti309  1  0.44869233  0.04166667  0.26441155  1.0
  Ti  Ti310  1  0.44869233  0.37500000  0.26441155  1.0
  Ti  Ti311  1  0.44869233  0.70833333  0.26441155  1.0
  Ti  Ti312  1  0.78202567  0.04166667  0.26441155  1.0
  Ti  Ti313  1  0.78202567  0.37500000  0.26441155  1.0
  Ti  Ti314  1  0.78202567  0.70833333  0.26441155  1.0
  Ti  Ti315  1  0.11535900  0.20833333  0.21441155  1.0
  Ti  Ti316  1  0.11535900  0.54166667  0.21441155  1.0
  Ti  Ti317  1  0.11535900  0.87500000  0.21441155  1.0
  Ti  Ti318  1  0.44869233  0.20833333  0.21441155  1.0
  Ti  Ti319  1  0.44869233  0.54166667  0.21441155  1.0
  Ti  Ti320  1  0.44869233  0.87500000  0.21441155  1.0
  Ti  Ti321  1  0.78202567  0.20833333  0.21441155  1.0
  Ti  Ti322  1  0.78202567  0.54166667  0.21441155  1.0
  Ti  Ti323  1  0.78202567  0.87500000  0.21441155  1.0
  Ti  Ti324  1  0.27565383  0.04166667  0.21250000  1.0
  Ti  Ti325  1  0.27565383  0.37500000  0.21250000  1.0
  Ti  Ti326  1  0.27565383  0.70833333  0.21250000  1.0
  Ti  Ti327  1  0.60898717  0.04166667  0.21250000  1.0
  Ti  Ti328  1  0.60898717  0.37500000  0.21250000  1.0
  Ti  Ti329  1  0.60898717  0.70833333  0.21250000  1.0
  Ti  Ti330  1  0.94232050  0.04166667  0.21250000  1.0
  Ti  Ti331  1  0.94232050  0.37500000  0.21250000  1.0
  Ti  Ti332  1  0.94232050  0.70833333  0.21250000  1.0
  Ti  Ti333  1  0.27565383  0.20833333  0.26250000  1.0
  Ti  Ti334  1  0.27565383  0.54166667  0.26250000  1.0
  Ti  Ti335  1  0.27565383  0.87500000  0.26250000  1.0
  Ti  Ti336  1  0.60898717  0.20833333  0.26250000  1.0
  Ti  Ti337  1  0.60898717  0.54166667  0.26250000  1.0
  Ti  Ti338  1  0.60898717  0.87500000  0.26250000  1.0
  Ti  Ti339  1  0.94232050  0.20833333  0.26250000  1.0
  Ti  Ti340  1  0.94232050  0.54166667  0.26250000  1.0
  Ti  Ti341  1  0.94232050  0.87500000  0.26250000  1.0
  Ti  Ti342  1  0.27565383  0.04166667  0.26058845  1.0
  Ti  Ti343  1  0.27565383  0.37500000  0.26058845  1.0
  Ti  Ti344  1  0.27565383  0.70833333  0.26058845  1.0
  Ti  Ti345  1  0.60898717  0.04166667  0.26058845  1.0
  Ti  Ti346  1  0.60898717  0.37500000  0.26058845  1.0
  Ti  Ti347  1  0.60898717  0.70833333  0.26058845  1.0
  Ti  Ti348  1  0.94232050  0.04166667  0.26058845  1.0
  Ti  Ti349  1  0.94232050  0.37500000  0.26058845  1.0
  Ti  Ti350  1  0.94232050  0.70833333  0.26058845  1.0
  Ti  Ti351  1  0.27565383  0.20833333  0.21058845  1.0
  Ti  Ti352  1  0.27565383  0.54166667  0.21058845  1.0
  Ti  Ti353  1  0.27565383  0.87500000  0.21058845  1.0
  Ti  Ti354  1  0.60898717  0.20833333  0.21058845  1.0
  Ti  Ti355  1  0.60898717  0.54166667  0.21058845  1.0
  Ti  Ti356  1  0.60898717  0.87500000  0.21058845  1.0
  Ti  Ti357  1  0.94232050  0.20833333  0.21058845  1.0
  Ti  Ti358  1  0.94232050  0.54166667  0.21058845  1.0
  Ti  Ti359  1  0.94232050  0.87500000  0.21058845  1.0
  Ti  Ti360  1  0.21797433  0.12500000  0.28558845  1.0
  Ti  Ti361  1  0.21797433  0.45833333  0.28558845  1.0
  Ti  Ti362  1  0.21797433  0.79166667  0.28558845  1.0
  Ti  Ti363  1  0.55130767  0.12500000  0.28558845  1.0
  Ti  Ti364  1  0.55130767  0.45833333  0.28558845  1.0
  Ti  Ti365  1  0.55130767  0.79166667  0.28558845  1.0
  Ti  Ti366  1  0.88464100  0.12500000  0.28558845  1.0
  Ti  Ti367  1  0.88464100  0.45833333  0.28558845  1.0
  Ti  Ti368  1  0.88464100  0.79166667  0.28558845  1.0
  Ti  Ti369  1  0.21797433  0.29166667  0.23558845  1.0
  Ti  Ti370  1  0.21797433  0.62500000  0.23558845  1.0
  Ti  Ti371  1  0.21797433  0.95833333  0.23558845  1.0
  Ti  Ti372  1  0.55130767  0.29166667  0.23558845  1.0
  Ti  Ti373  1  0.55130767  0.62500000  0.23558845  1.0
  Ti  Ti374  1  0.55130767  0.95833333  0.23558845  1.0
  Ti  Ti375  1  0.88464100  0.29166667  0.23558845  1.0
  Ti  Ti376  1  0.88464100  0.62500000  0.23558845  1.0
  Ti  Ti377  1  0.88464100  0.95833333  0.23558845  1.0
  Ti  Ti378  1  0.05767950  0.12500000  0.23750000  1.0
  Ti  Ti379  1  0.05767950  0.45833333  0.23750000  1.0
  Ti  Ti380  1  0.05767950  0.79166667  0.23750000  1.0
  Ti  Ti381  1  0.39101283  0.12500000  0.23750000  1.0
  Ti  Ti382  1  0.39101283  0.45833333  0.23750000  1.0
  Ti  Ti383  1  0.39101283  0.79166667  0.23750000  1.0
  Ti  Ti384  1  0.72434617  0.12500000  0.23750000  1.0
  Ti  Ti385  1  0.72434617  0.45833333  0.23750000  1.0
  Ti  Ti386  1  0.72434617  0.79166667  0.23750000  1.0
  Ti  Ti387  1  0.05767950  0.29166667  0.28750000  1.0
  Ti  Ti388  1  0.05767950  0.62500000  0.28750000  1.0
  Ti  Ti389  1  0.05767950  0.95833333  0.28750000  1.0
  Ti  Ti390  1  0.39101283  0.29166667  0.28750000  1.0
  Ti  Ti391  1  0.39101283  0.62500000  0.28750000  1.0
  Ti  Ti392  1  0.39101283  0.95833333  0.28750000  1.0
  Ti  Ti393  1  0.72434617  0.29166667  0.28750000  1.0
  Ti  Ti394  1  0.72434617  0.62500000  0.28750000  1.0
  Ti  Ti395  1  0.72434617  0.95833333  0.28750000  1.0
  Ni  Ni396  1  0.22222222  0.12500000  0.23750000  1.0
  Ni  Ni397  1  0.22222222  0.45833333  0.23750000  1.0
  Ni  Ni398  1  0.22222222  0.79166667  0.23750000  1.0
  Ni  Ni399  1  0.55555556  0.12500000  0.23750000  1.0
  Ni  Ni400  1  0.55555556  0.45833333  0.23750000  1.0
  Ni  Ni401  1  0.55555556  0.79166667  0.23750000  1.0
  Ni  Ni402  1  0.88888889  0.12500000  0.23750000  1.0
  Ni  Ni403  1  0.88888889  0.45833333  0.23750000  1.0
  Ni  Ni404  1  0.88888889  0.79166667  0.23750000  1.0
  Ni  Ni405  1  0.22222222  0.29166667  0.28750000  1.0
  Ni  Ni406  1  0.22222222  0.62500000  0.28750000  1.0
  Ni  Ni407  1  0.22222222  0.95833333  0.28750000  1.0
  Ni  Ni408  1  0.55555556  0.29166667  0.28750000  1.0
  Ni  Ni409  1  0.55555556  0.62500000  0.28750000  1.0
  Ni  Ni410  1  0.55555556  0.95833333  0.28750000  1.0
  Ni  Ni411  1  0.88888889  0.29166667  0.28750000  1.0
  Ni  Ni412  1  0.88888889  0.62500000  0.28750000  1.0
  Ni  Ni413  1  0.88888889  0.95833333  0.28750000  1.0
  Ni  Ni414  1  0.11111111  0.04166667  0.21250000  1.0
  Ni  Ni415  1  0.11111111  0.37500000  0.21250000  1.0
  Ni  Ni416  1  0.11111111  0.70833333  0.21250000  1.0
  Ni  Ni417  1  0.44444444  0.04166667  0.21250000  1.0
  Ni  Ni418  1  0.44444444  0.37500000  0.21250000  1.0
  Ni  Ni419  1  0.44444444  0.70833333  0.21250000  1.0
  Ni  Ni420  1  0.77777778  0.04166667  0.21250000  1.0
  Ni  Ni421  1  0.77777778  0.37500000  0.21250000  1.0
  Ni  Ni422  1  0.77777778  0.70833333  0.21250000  1.0
  Ni  Ni423  1  0.11111111  0.20833333  0.26250000  1.0
  Ni  Ni424  1  0.11111111  0.54166667  0.26250000  1.0
  Ni  Ni425  1  0.11111111  0.87500000  0.26250000  1.0
  Ni  Ni426  1  0.44444444  0.20833333  0.26250000  1.0
  Ni  Ni427  1  0.44444444  0.54166667  0.26250000  1.0
  Ni  Ni428  1  0.44444444  0.87500000  0.26250000  1.0
  Ni  Ni429  1  0.77777778  0.20833333  0.26250000  1.0
  Ni  Ni430  1  0.77777778  0.54166667  0.26250000  1.0
  Ni  Ni431  1  0.77777778  0.87500000  0.26250000  1.0
  Ti  Ti432  1  0.05767950  0.12500000  0.38941155  1.0
  Ti  Ti433  1  0.05767950  0.45833333  0.38941155  1.0
  Ti  Ti434  1  0.05767950  0.79166667  0.38941155  1.0
  Ti  Ti435  1  0.39101283  0.12500000  0.38941155  1.0
  Ti  Ti436  1  0.39101283  0.45833333  0.38941155  1.0
  Ti  Ti437  1  0.39101283  0.79166667  0.38941155  1.0
  Ti  Ti438  1  0.72434617  0.12500000  0.38941155  1.0
  Ti  Ti439  1  0.72434617  0.45833333  0.38941155  1.0
  Ti  Ti440  1  0.72434617  0.79166667  0.38941155  1.0
  Ti  Ti441  1  0.05767950  0.29166667  0.33941155  1.0
  Ti  Ti442  1  0.05767950  0.62500000  0.33941155  1.0
  Ti  Ti443  1  0.05767950  0.95833333  0.33941155  1.0
  Ti  Ti444  1  0.39101283  0.29166667  0.33941155  1.0
  Ti  Ti445  1  0.39101283  0.62500000  0.33941155  1.0
  Ti  Ti446  1  0.39101283  0.95833333  0.33941155  1.0
  Ti  Ti447  1  0.72434617  0.29166667  0.33941155  1.0
  Ti  Ti448  1  0.72434617  0.62500000  0.33941155  1.0
  Ti  Ti449  1  0.72434617  0.95833333  0.33941155  1.0
  Ti  Ti450  1  0.11535900  0.04166667  0.36441155  1.0
  Ti  Ti451  1  0.11535900  0.37500000  0.36441155  1.0
  Ti  Ti452  1  0.11535900  0.70833333  0.36441155  1.0
  Ti  Ti453  1  0.44869233  0.04166667  0.36441155  1.0
  Ti  Ti454  1  0.44869233  0.37500000  0.36441155  1.0
  Ti  Ti455  1  0.44869233  0.70833333  0.36441155  1.0
  Ti  Ti456  1  0.78202567  0.04166667  0.36441155  1.0
  Ti  Ti457  1  0.78202567  0.37500000  0.36441155  1.0
  Ti  Ti458  1  0.78202567  0.70833333  0.36441155  1.0
  Ti  Ti459  1  0.11535900  0.20833333  0.31441155  1.0
  Ti  Ti460  1  0.11535900  0.54166667  0.31441155  1.0
  Ti  Ti461  1  0.11535900  0.87500000  0.31441155  1.0
  Ti  Ti462  1  0.44869233  0.20833333  0.31441155  1.0
  Ti  Ti463  1  0.44869233  0.54166667  0.31441155  1.0
  Ti  Ti464  1  0.44869233  0.87500000  0.31441155  1.0
  Ti  Ti465  1  0.78202567  0.20833333  0.31441155  1.0
  Ti  Ti466  1  0.78202567  0.54166667  0.31441155  1.0
  Ti  Ti467  1  0.78202567  0.87500000  0.31441155  1.0
  Ti  Ti468  1  0.27565383  0.04166667  0.31250000  1.0
  Ti  Ti469  1  0.27565383  0.37500000  0.31250000  1.0
  Ti  Ti470  1  0.27565383  0.70833333  0.31250000  1.0
  Ti  Ti471  1  0.60898717  0.04166667  0.31250000  1.0
  Ti  Ti472  1  0.60898717  0.37500000  0.31250000  1.0
  Ti  Ti473  1  0.60898717  0.70833333  0.31250000  1.0
  Ti  Ti474  1  0.94232050  0.04166667  0.31250000  1.0
  Ti  Ti475  1  0.94232050  0.37500000  0.31250000  1.0
  Ti  Ti476  1  0.94232050  0.70833333  0.31250000  1.0
  Ti  Ti477  1  0.27565383  0.20833333  0.36250000  1.0
  Ti  Ti478  1  0.27565383  0.54166667  0.36250000  1.0
  Ti  Ti479  1  0.27565383  0.87500000  0.36250000  1.0
  Ti  Ti480  1  0.60898717  0.20833333  0.36250000  1.0
  Ti  Ti481  1  0.60898717  0.54166667  0.36250000  1.0
  Ti  Ti482  1  0.60898717  0.87500000  0.36250000  1.0
  Ti  Ti483  1  0.94232050  0.20833333  0.36250000  1.0
  Ti  Ti484  1  0.94232050  0.54166667  0.36250000  1.0
  Ti  Ti485  1  0.94232050  0.87500000  0.36250000  1.0
  Ti  Ti486  1  0.27565383  0.04166667  0.36058845  1.0
  Ti  Ti487  1  0.27565383  0.37500000  0.36058845  1.0
  Ti  Ti488  1  0.27565383  0.70833333  0.36058845  1.0
  Ti  Ti489  1  0.60898717  0.04166667  0.36058845  1.0
  Ti  Ti490  1  0.60898717  0.37500000  0.36058845  1.0
  Ti  Ti491  1  0.60898717  0.70833333  0.36058845  1.0
  Ti  Ti492  1  0.94232050  0.04166667  0.36058845  1.0
  Ti  Ti493  1  0.94232050  0.37500000  0.36058845  1.0
  Ti  Ti494  1  0.94232050  0.70833333  0.36058845  1.0
  Ti  Ti495  1  0.27565383  0.20833333  0.31058845  1.0
  Ti  Ti496  1  0.27565383  0.54166667  0.31058845  1.0
  Ti  Ti497  1  0.27565383  0.87500000  0.31058845  1.0
  Ti  Ti498  1  0.60898717  0.20833333  0.31058845  1.0
  Ti  Ti499  1  0.60898717  0.54166667  0.31058845  1.0
  Ti  Ti500  1  0.60898717  0.87500000  0.31058845  1.0
  Ti  Ti501  1  0.94232050  0.20833333  0.31058845  1.0
  Ti  Ti502  1  0.94232050  0.54166667  0.31058845  1.0
  Ti  Ti503  1  0.94232050  0.87500000  0.31058845  1.0
  Ti  Ti504  1  0.21797433  0.12500000  0.38558845  1.0
  Ti  Ti505  1  0.21797433  0.45833333  0.38558845  1.0
  Ti  Ti506  1  0.21797433  0.79166667  0.38558845  1.0
  Ti  Ti507  1  0.55130767  0.12500000  0.38558845  1.0
  Ti  Ti508  1  0.55130767  0.45833333  0.38558845  1.0
  Ti  Ti509  1  0.55130767  0.79166667  0.38558845  1.0
  Ti  Ti510  1  0.88464100  0.12500000  0.38558845  1.0
  Ti  Ti511  1  0.88464100  0.45833333  0.38558845  1.0
  Ti  Ti512  1  0.88464100  0.79166667  0.38558845  1.0
  Ti  Ti513  1  0.21797433  0.29166667  0.33558845  1.0
  Ti  Ti514  1  0.21797433  0.62500000  0.33558845  1.0
  Ti  Ti515  1  0.21797433  0.95833333  0.33558845  1.0
  Ti  Ti516  1  0.55130767  0.29166667  0.33558845  1.0
  Ti  Ti517  1  0.55130767  0.62500000  0.33558845  1.0
  Ti  Ti518  1  0.55130767  0.95833333  0.33558845  1.0
  Ti  Ti519  1  0.88464100  0.29166667  0.33558845  1.0
  Ti  Ti520  1  0.88464100  0.62500000  0.33558845  1.0
  Ti  Ti521  1  0.88464100  0.95833333  0.33558845  1.0
  Ti  Ti522  1  0.05767950  0.12500000  0.33750000  1.0
  Ti  Ti523  1  0.05767950  0.45833333  0.33750000  1.0
  Ti  Ti524  1  0.05767950  0.79166667  0.33750000  1.0
  Ti  Ti525  1  0.39101283  0.12500000  0.33750000  1.0
  Ti  Ti526  1  0.39101283  0.45833333  0.33750000  1.0
  Ti  Ti527  1  0.39101283  0.79166667  0.33750000  1.0
  Ti  Ti528  1  0.72434617  0.12500000  0.33750000  1.0
  Ti  Ti529  1  0.72434617  0.45833333  0.33750000  1.0
  Ti  Ti530  1  0.72434617  0.79166667  0.33750000  1.0
  Ti  Ti531  1  0.05767950  0.29166667  0.38750000  1.0
  Ti  Ti532  1  0.05767950  0.62500000  0.38750000  1.0
  Ti  Ti533  1  0.05767950  0.95833333  0.38750000  1.0
  Ti  Ti534  1  0.39101283  0.29166667  0.38750000  1.0
  Ti  Ti535  1  0.39101283  0.62500000  0.38750000  1.0
  Ti  Ti536  1  0.39101283  0.95833333  0.38750000  1.0
  Ti  Ti537  1  0.72434617  0.29166667  0.38750000  1.0
  Ti  Ti538  1  0.72434617  0.62500000  0.38750000  1.0
  Ti  Ti539  1  0.72434617  0.95833333  0.38750000  1.0
  Ni  Ni540  1  0.22222222  0.12500000  0.33750000  1.0
  Ni  Ni541  1  0.22222222  0.45833333  0.33750000  1.0
  Ni  Ni542  1  0.22222222  0.79166667  0.33750000  1.0
  Ni  Ni543  1  0.55555556  0.12500000  0.33750000  1.0
  Ni  Ni544  1  0.55555556  0.45833333  0.33750000  1.0
  Ni  Ni545  1  0.55555556  0.79166667  0.33750000  1.0
  Ni  Ni546  1  0.88888889  0.12500000  0.33750000  1.0
  Ni  Ni547  1  0.88888889  0.45833333  0.33750000  1.0
  Ni  Ni548  1  0.88888889  0.79166667  0.33750000  1.0
  Ni  Ni549  1  0.22222222  0.29166667  0.38750000  1.0
  Ni  Ni550  1  0.22222222  0.62500000  0.38750000  1.0
  Ni  Ni551  1  0.22222222  0.95833333  0.38750000  1.0
  Ni  Ni552  1  0.55555556  0.29166667  0.38750000  1.0
  Ni  Ni553  1  0.55555556  0.62500000  0.38750000  1.0
  Ni  Ni554  1  0.55555556  0.95833333  0.38750000  1.0
  Ni  Ni555  1  0.88888889  0.29166667  0.38750000  1.0
  Ni  Ni556  1  0.88888889  0.62500000  0.38750000  1.0
  Ni  Ni557  1  0.88888889  0.95833333  0.38750000  1.0
  Ni  Ni558  1  0.11111111  0.04166667  0.31250000  1.0
  Ni  Ni559  1  0.11111111  0.37500000  0.31250000  1.0
  Ni  Ni560  1  0.11111111  0.70833333  0.31250000  1.0
  Ni  Ni561  1  0.44444444  0.04166667  0.31250000  1.0
  Ni  Ni562  1  0.44444444  0.37500000  0.31250000  1.0
  Ni  Ni563  1  0.44444444  0.70833333  0.31250000  1.0
  Ni  Ni564  1  0.77777778  0.04166667  0.31250000  1.0
  Ni  Ni565  1  0.77777778  0.37500000  0.31250000  1.0
  Ni  Ni566  1  0.77777778  0.70833333  0.31250000  1.0
  Ni  Ni567  1  0.11111111  0.20833333  0.36250000  1.0
  Ni  Ni568  1  0.11111111  0.54166667  0.36250000  1.0
  Ni  Ni569  1  0.11111111  0.87500000  0.36250000  1.0
  Ni  Ni570  1  0.44444444  0.20833333  0.36250000  1.0
  Ni  Ni571  1  0.44444444  0.54166667  0.36250000  1.0
  Ni  Ni572  1  0.44444444  0.87500000  0.36250000  1.0
  Ni  Ni573  1  0.77777778  0.20833333  0.36250000  1.0
  Ni  Ni574  1  0.77777778  0.54166667  0.36250000  1.0
  Ni  Ni575  1  0.77777778  0.87500000  0.36250000  1.0
