# generated using pymatgen
data_Ti3Ni
_symmetry_space_group_name_H-M   'P 1'
_cell_length_a   11.80552500
_cell_length_b   26.39795641
_cell_length_c   31.48140000
_cell_angle_alpha   116.56505118
_cell_angle_beta   90.00000000
_cell_angle_gamma   90.00000000
_symmetry_Int_Tables_number   1
_chemical_formula_structural   Ti3Ni
_chemical_formula_sum   'Ti162 Ni54'
_cell_volume   8775.15191347
_cell_formula_units_Z   54
loop_
 _symmetry_equiv_pos_site_id
 _symmetry_equiv_pos_as_xyz
  1  'x, y, z'
loop_
 _atom_site_type_symbol
 _atom_site_label
 _atom_site_symmetry_multiplicity
 _atom_site_fract_x
 _atom_site_fract_y
 _atom_site_fract_z
 _atom_site_occupancy
  Ti  Ti0  1  0.16666667  0.08333333  0.01562500  1.0
  Ti  Ti1  1  0.16666667  0.41666667  0.01562500  1.0
  Ti  Ti2  1  0.16666667  0.75000000  0.01562500  1.0
  Ti  Ti3  1  0.50000000  0.08333333  0.01562500  1.0
  Ti  Ti4  1  0.50000000  0.41666667  0.01562500  1.0
  Ti  Ti5  1  0.50000000  0.75000000  0.01562500  1.0
  Ti  Ti6  1  0.83333333  0.08333333  0.01562500  1.0
  Ti  Ti7  1  0.83333333  0.41666667  0.01562500  1.0
  Ti  Ti8  1  0.83333333  0.75000000  0.01562500  1.0
  Ti  Ti9  1  0.16666667  0.25000000  0.07812500  1.0
  Ti  Ti10  1  0.16666667  0.58333333  0.07812500  1.0
  Ti  Ti11  1  0.16666667  0.91666667  0.07812500  1.0
  Ti  Ti12  1  0.50000000  0.25000000  0.07812500  1.0
  Ti  Ti13  1  0.50000000  0.58333333  0.07812500  1.0
  Ti  Ti14  1  0.50000000  0.91666667  0.07812500  1.0
  Ti  Ti15  1  0.83333333  0.25000000  0.07812500  1.0
  Ti  Ti16  1  0.83333333  0.58333333  0.07812500  1.0
  Ti  Ti17  1  0.83333333  0.91666667  0.07812500  1.0
  Ti  Ti18  1  0.16666667  0.16666667  0.10937500  1.0
  Ti  Ti19  1  0.16666667  0.50000000  0.10937500  1.0
  Ti  Ti20  1  0.16666667  0.83333333  0.10937500  1.0
  Ti  Ti21  1  0.50000000  0.16666667  0.10937500  1.0
  Ti  Ti22  1  0.50000000  0.50000000  0.10937500  1.0
  Ti  Ti23  1  0.50000000  0.83333333  0.10937500  1.0
  Ti  Ti24  1  0.83333333  0.16666667  0.10937500  1.0
  Ti  Ti25  1  0.83333333  0.50000000  0.10937500  1.0
  Ti  Ti26  1  0.83333333  0.83333333  0.10937500  1.0
  Ti  Ti27  1  0.16666667  0.00000000  0.04687500  1.0
  Ti  Ti28  1  0.16666667  0.33333333  0.04687500  1.0
  Ti  Ti29  1  0.16666667  0.66666667  0.04687500  1.0
  Ti  Ti30  1  0.50000000  0.00000000  0.04687500  1.0
  Ti  Ti31  1  0.50000000  0.33333333  0.04687500  1.0
  Ti  Ti32  1  0.50000000  0.66666667  0.04687500  1.0
  Ti  Ti33  1  0.83333333  0.00000000  0.04687500  1.0
  Ti  Ti34  1  0.83333333  0.33333333  0.04687500  1.0
  Ti  Ti35  1  0.83333333  0.66666667  0.04687500  1.0
  Ti  Ti36  1  0.00000000  0.08333333  0.07812500  1.0
  Ti  Ti37  1  0.00000000  0.41666667  0.07812500  1.0
  Ti  Ti38  1  0.00000000  0.75000000  0.07812500  1.0
  Ti  Ti39  1  0.33333333  0.08333333  0.07812500  1.0
  Ti  Ti40  1  0.33333333  0.41666667  0.07812500  1.0
  Ti  Ti41  1  0.33333333  0.75000000  0.07812500  1.0
  Ti  Ti42  1  0.66666667  0.08333333  0.07812500  1.0
  Ti  Ti43  1  0.66666667  0.41666667  0.07812500  1.0
  Ti  Ti44  1  0.66666667  0.75000000  0.07812500  1.0
  Ti  Ti45  1  0.00000000  0.25000000  0.01562500  1.0
  Ti  Ti46  1  0.00000000  0.58333333  0.01562500  1.0
  Ti  Ti47  1  0.00000000  0.91666667  0.01562500  1.0
  Ti  Ti48  1  0.33333333  0.25000000  0.01562500  1.0
  Ti  Ti49  1  0.33333333  0.58333333  0.01562500  1.0
  Ti  Ti50  1  0.33333333  0.91666667  0.01562500  1.0
  Ti  Ti51  1  0.66666667  0.25000000  0.01562500  1.0
  Ti  Ti52  1  0.66666667  0.58333333  0.01562500  1.0
  Ti  Ti53  1  0.66666667  0.91666667  0.01562500  1.0
  Ni  Ni54  1  0.00000000  0.16666667  0.04687500  1.0
  Ni  Ni55  1  0.00000000  0.50000000  0.04687500  1.0
  Ni  Ni56  1  0.00000000  0.83333333  0.04687500  1.0
  Ni  Ni57  1  0.33333333  0.16666667  0.04687500  1.0
  Ni  Ni58  1  0.33333333  0.50000000  0.04687500  1.0
  Ni  Ni59  1  0.33333333  0.83333333  0.04687500  1.0
  Ni  Ni60  1  0.66666667  0.16666667  0.04687500  1.0
  Ni  Ni61  1  0.66666667  0.50000000  0.04687500  1.0
  Ni  Ni62  1  0.66666667  0.83333333  0.04687500  1.0
  Ni  Ni63  1  0.00000000  0.00000000  0.10937500  1.0
  Ni  Ni64  1  0.00000000  0.33333333  0.10937500  1.0
  Ni  Ni65  1  0.00000000  0.66666667  0.10937500  1.0
  Ni  Ni66  1  0.33333333  0.00000000  0.10937500  1.0
  Ni  Ni67  1  0.33333333  0.33333333  0.10937500  1.0
  Ni  Ni68  1  0.33333333  0.66666667  0.10937500  1.0
  Ni  Ni69  1  0.66666667  0.00000000  0.10937500  1.0
  Ni  Ni70  1  0.66666667  0.33333333  0.10937500  1.0
  Ni  Ni71  1  0.66666667  0.66666667  0.10937500  1.0
  Ti  Ti72  1  0.16666667  0.08333333  0.14062500  1.0
  Ti  Ti73  1  0.16666667  0.41666667  0.14062500  1.0
  Ti  Ti74  1  0.16666667  0.75000000  0.14062500  1.0
  Ti  Ti75  1  0.50000000  0.08333333  0.14062500  1.0
  Ti  Ti76  1  0.50000000  0.41666667  0.14062500  1.0
  Ti  Ti77  1  0.50000000  0.75000000  0.14062500  1.0
  Ti  Ti78  1  0.83333333  0.08333333  0.14062500  1.0
  Ti  Ti79  1  0.83333333  0.41666667  0.14062500  1.0
  Ti  Ti80  1  0.83333333  0.75000000  0.14062500  1.0
  Ti  Ti81  1  0.16666667  0.25000000  0.20312500  1.0
  Ti  Ti82  1  0.16666667  0.58333333  0.20312500  1.0
  Ti  Ti83  1  0.16666667  0.91666667  0.20312500  1.0
  Ti  Ti84  1  0.50000000  0.25000000  0.20312500  1.0
  Ti  Ti85  1  0.50000000  0.58333333  0.20312500  1.0
  Ti  Ti86  1  0.50000000  0.91666667  0.20312500  1.0
  Ti  Ti87  1  0.83333333  0.25000000  0.20312500  1.0
  Ti  Ti88  1  0.83333333  0.58333333  0.20312500  1.0
  Ti  Ti89  1  0.83333333  0.91666667  0.20312500  1.0
  Ti  Ti90  1  0.16666667  0.16666667  0.23437500  1.0
  Ti  Ti91  1  0.16666667  0.50000000  0.23437500  1.0
  Ti  Ti92  1  0.16666667  0.83333333  0.23437500  1.0
  Ti  Ti93  1  0.50000000  0.16666667  0.23437500  1.0
  Ti  Ti94  1  0.50000000  0.50000000  0.23437500  1.0
  Ti  Ti95  1  0.50000000  0.83333333  0.23437500  1.0
  Ti  Ti96  1  0.83333333  0.16666667  0.23437500  1.0
  Ti  Ti97  1  0.83333333  0.50000000  0.23437500  1.0
  Ti  Ti98  1  0.83333333  0.83333333  0.23437500  1.0
  Ti  Ti99  1  0.16666667  0.00000000  0.17187500  1.0
  Ti  Ti100  1  0.16666667  0.33333333  0.17187500  1.0
  Ti  Ti101  1  0.16666667  0.66666667  0.17187500  1.0
  Ti  Ti102  1  0.50000000  0.00000000  0.17187500  1.0
  Ti  Ti103  1  0.50000000  0.33333333  0.17187500  1.0
  Ti  Ti104  1  0.50000000  0.66666667  0.17187500  1.0
  Ti  Ti105  1  0.83333333  0.00000000  0.17187500  1.0
  Ti  Ti106  1  0.83333333  0.33333333  0.17187500  1.0
  Ti  Ti107  1  0.83333333  0.66666667  0.17187500  1.0
  Ti  Ti108  1  0.00000000  0.08333333  0.20312500  1.0
  Ti  Ti109  1  0.00000000  0.41666667  0.20312500  1.0
  Ti  Ti110  1  0.00000000  0.75000000  0.20312500  1.0
  Ti  Ti111  1  0.33333333  0.08333333  0.20312500  1.0
  Ti  Ti112  1  0.33333333  0.41666667  0.20312500  1.0
  Ti  Ti113  1  0.33333333  0.75000000  0.20312500  1.0
  Ti  Ti114  1  0.66666667  0.08333333  0.20312500  1.0
  Ti  Ti115  1  0.66666667  0.41666667  0.20312500  1.0
  Ti  Ti116  1  0.66666667  0.75000000  0.20312500  1.0
  Ti  Ti117  1  0.00000000  0.25000000  0.14062500  1.0
  Ti  Ti118  1  0.00000000  0.58333333  0.14062500  1.0
  Ti  Ti119  1  0.00000000  0.91666667  0.14062500  1.0
  Ti  Ti120  1  0.33333333  0.25000000  0.14062500  1.0
  Ti  Ti121  1  0.33333333  0.58333333  0.14062500  1.0
  Ti  Ti122  1  0.33333333  0.91666667  0.14062500  1.0
  Ti  Ti123  1  0.66666667  0.25000000  0.14062500  1.0
  Ti  Ti124  1  0.66666667  0.58333333  0.14062500  1.0
  Ti  Ti125  1  0.66666667  0.91666667  0.14062500  1.0
  Ni  Ni126  1  0.00000000  0.16666667  0.17187500  1.0
  Ni  Ni127  1  0.00000000  0.50000000  0.17187500  1.0
  Ni  Ni128  1  0.00000000  0.83333333  0.17187500  1.0
  Ni  Ni129  1  0.33333333  0.16666667  0.17187500  1.0
  Ni  Ni130  1  0.33333333  0.50000000  0.17187500  1.0
  Ni  Ni131  1  0.33333333  0.83333333  0.17187500  1.0
  Ni  Ni132  1  0.66666667  0.16666667  0.17187500  1.0
  Ni  Ni133  1  0.66666667  0.50000000  0.17187500  1.0
  Ni  Ni134  1  0.66666667  0.83333333  0.17187500  1.0
  Ni  Ni135  1  0.00000000  0.00000000  0.23437500  1.0
  Ni  Ni136  1  0.00000000  0.33333333  0.23437500  1.0
  Ni  Ni137  1  0.00000000  0.66666667  0.23437500  1.0
  Ni  Ni138  1  0.33333333  0.00000000  0.23437500  1.0
  Ni  Ni139  1  0.33333333  0.33333333  0.23437500  1.0
  Ni  Ni140  1  0.33333333  0.66666667  0.23437500  1.0
  Ni  Ni141  1  0.66666667  0.00000000  0.23437500  1.0
  Ni  Ni142  1  0.66666667  0.33333333  0.23437500  1.0
  Ni  Ni143  1  0.66666667  0.66666667  0.23437500  1.0
  Ti  Ti144  1  0.16666667  0.08333333  0.26562500  1.0
  Ti  Ti145  1  0.16666667  0.41666667  0.26562500  1.0
  Ti  Ti146  1  0.16666667  0.75000000  0.26562500  1.0
  Ti  Ti147  1  0.50000000  0.08333333  0.26562500  1.0
  Ti  Ti148  1  0.50000000  0.41666667  0.26562500  1.0
  Ti  Ti149  1  0.50000000  0.75000000  0.26562500  1.0
  Ti  Ti150  1  0.83333333  0.08333333  0.26562500  1.0
  Ti  Ti151  1  0.83333333  0.41666667  0.26562500  1.0
  Ti  Ti152  1  0.83333333  0.75000000  0.26562500  1.0
  Ti  Ti153  1  0.16666667  0.25000000  0.32812500  1.0
  Ti  Ti154  1  0.16666667  0.58333333  0.32812500  1.0
  Ti  Ti155  1  0.16666667  0.91666667  0.32812500  1.0
  Ti  Ti156  1  0.50000000  0.25000000  0.32812500  1.0
  Ti  Ti157  1  0.50000000  0.58333333  0.32812500  1.0
  Ti  Ti158  1  0.50000000  0.91666667  0.32812500  1.0
  Ti  Ti159  1  0.83333333  0.25000000  0.32812500  1.0
  Ti  Ti160  1  0.83333333  0.58333333  0.32812500  1.0
  Ti  Ti161  1  0.83333333  0.91666667  0.32812500  1.0
  Ti  Ti162  1  0.16666667  0.16666667  0.35937500  1.0
  Ti  Ti163  1  0.16666667  0.50000000  0.35937500  1.0
  Ti  Ti164  1  0.16666667  0.83333333  0.35937500  1.0
  Ti  Ti165  1  0.50000000  0.16666667  0.35937500  1.0
  Ti  Ti166  1  0.50000000  0.50000000  0.35937500  1.0
  Ti  Ti167  1  0.50000000  0.83333333  0.35937500  1.0
  Ti  Ti168  1  0.83333333  0.16666667  0.35937500  1.0
  Ti  Ti169  1  0.83333333  0.50000000  0.35937500  1.0
  Ti  Ti170  1  0.83333333  0.83333333  0.35937500  1.0
  Ti  Ti171  1  0.16666667  0.00000000  0.29687500  1.0
  Ti  Ti172  1  0.16666667  0.33333333  0.29687500  1.0
  Ti  Ti173  1  0.16666667  0.66666667  0.29687500  1.0
  Ti  Ti174  1  0.50000000  0.00000000  0.29687500  1.0
  Ti  Ti175  1  0.50000000  0.33333333  0.29687500  1.0
  Ti  Ti176  1  0.50000000  0.66666667  0.29687500  1.0
  Ti  Ti177  1  0.83333333  0.00000000  0.29687500  1.0
  Ti  Ti178  1  0.83333333  0.33333333  0.29687500  1.0
  Ti  Ti179  1  0.83333333  0.66666667  0.29687500  1.0
  Ti  Ti180  1  0.00000000  0.08333333  0.32812500  1.0
  Ti  Ti181  1  0.00000000  0.41666667  0.32812500  1.0
  Ti  Ti182  1  0.00000000  0.75000000  0.32812500  1.0
  Ti  Ti183  1  0.33333333  0.08333333  0.32812500  1.0
  Ti  Ti184  1  0.33333333  0.41666667  0.32812500  1.0
  Ti  Ti185  1  0.33333333  0.75000000  0.32812500  1.0
  Ti  Ti186  1  0.66666667  0.08333333  0.32812500  1.0
  Ti  Ti187  1  0.66666667  0.41666667  0.32812500  1.0
  Ti  Ti188  1  0.66666667  0.75000000  0.32812500  1.0
  Ti  Ti189  1  0.00000000  0.25000000  0.26562500  1.0
  Ti  Ti190  1  0.00000000  0.58333333  0.26562500  1.0
  Ti  Ti191  1  0.00000000  0.91666667  0.26562500  1.0
  Ti  Ti192  1  0.33333333  0.25000000  0.26562500  1.0
  Ti  Ti193  1  0.33333333  0.58333333  0.26562500  1.0
  Ti  Ti194  1  0.33333333  0.91666667  0.26562500  1.0
  Ti  Ti195  1  0.66666667  0.25000000  0.26562500  1.0
  Ti  Ti196  1  0.66666667  0.58333333  0.26562500  1.0
  Ti  Ti197  1  0.66666667  0.91666667  0.26562500  1.0
  Ni  Ni198  1  0.00000000  0.16666667  0.29687500  1.0
  Ni  Ni199  1  0.00000000  0.50000000  0.29687500  1.0
  Ni  Ni200  1  0.00000000  0.83333333  0.29687500  1.0
  Ni  Ni201  1  0.33333333  0.16666667  0.29687500  1.0
  Ni  Ni202  1  0.33333333  0.50000000  0.29687500  1.0
  Ni  Ni203  1  0.33333333  0.83333333  0.29687500  1.0
  Ni  Ni204  1  0.66666667  0.16666667  0.29687500  1.0
  Ni  Ni205  1  0.66666667  0.50000000  0.29687500  1.0
  Ni  Ni206  1  0.66666667  0.83333333  0.29687500  1.0
  Ni  Ni207  1  0.00000000  0.00000000  0.35937500  1.0
  Ni  Ni208  1  0.00000000  0.33333333  0.35937500  1.0
  Ni  Ni209  1  0.00000000  0.66666667  0.35937500  1.0
  Ni  Ni210  1  0.33333333  0.00000000  0.35937500  1.0
  Ni  Ni211  1  0.33333333  0.33333333  0.35937500  1.0
  Ni  Ni212  1  0.33333333  0.66666667  0.35937500  1.0
  Ni  Ni213  1  0.66666667  0.00000000  0.35937500  1.0
  Ni  Ni214  1  0.66666667  0.33333333  0.35937500  1.0
  Ni  Ni215  1  0.66666667  0.66666667  0.35937500  1.0
