# generated using pymatgen
data_Ti3Ni
_symmetry_space_group_name_H-M   'P 1'
_cell_length_a   16.69553357
_cell_length_b   20.44776911
_cell_length_c   28.91751240
_cell_angle_alpha   90.00000000
_cell_angle_beta   90.00000000
_cell_angle_gamma   90.00000000
_symmetry_Int_Tables_number   1
_chemical_formula_structural   Ti3Ni
_chemical_formula_sum   'Ti216 Ni72'
_cell_volume   9872.04590265
_cell_formula_units_Z   72
loop_
 _symmetry_equiv_pos_site_id
 _symmetry_equiv_pos_as_xyz
  1  'x, y, z'
loop_
 _atom_site_type_symbol
 _atom_site_label
 _atom_site_symmetry_multiplicity
 _atom_site_fract_x
 _atom_site_fract_y
 _atom_site_fract_z
 _atom_site_occupancy
  Ni  Ni0  1  0.33333333  0.23611111  0.90277778  1.0
  Ni  Ni1  1  0.33333333  0.56944444  0.90277778  1.0
  Ni  Ni2  1  0.33333333  0.90277778  0.90277778  1.0
  Ni  Ni3  1  0.66666667  0.23611111  0.90277778  1.0
  Ni  Ni4  1  0.66666667  0.56944444  0.90277778  1.0
  Ni  Ni5  1  0.66666667  0.90277778  0.90277778  1.0
  Ni  Ni6  1  0.00000000  0.23611111  0.90277778  1.0
  Ni  Ni7  1  0.00000000  0.56944444  0.90277778  1.0
  Ni  Ni8  1  0.00000000  0.90277778  0.90277778  1.0
  Ni  Ni9  1  0.16666667  0.12500000  0.95833333  1.0
  Ni  Ni10  1  0.16666667  0.45833333  0.95833333  1.0
  Ni  Ni11  1  0.16666667  0.79166667  0.95833333  1.0
  Ni  Ni12  1  0.50000000  0.12500000  0.95833333  1.0
  Ni  Ni13  1  0.50000000  0.45833333  0.95833333  1.0
  Ni  Ni14  1  0.50000000  0.79166667  0.95833333  1.0
  Ni  Ni15  1  0.83333333  0.12500000  0.95833333  1.0
  Ni  Ni16  1  0.83333333  0.45833333  0.95833333  1.0
  Ni  Ni17  1  0.83333333  0.79166667  0.95833333  1.0
  Ni  Ni18  1  0.33333333  0.12500000  0.79166667  1.0
  Ni  Ni19  1  0.33333333  0.45833333  0.79166667  1.0
  Ni  Ni20  1  0.33333333  0.79166667  0.79166667  1.0
  Ni  Ni21  1  0.66666667  0.12500000  0.79166667  1.0
  Ni  Ni22  1  0.66666667  0.45833333  0.79166667  1.0
  Ni  Ni23  1  0.66666667  0.79166667  0.79166667  1.0
  Ni  Ni24  1  0.00000000  0.12500000  0.79166667  1.0
  Ni  Ni25  1  1.00000000  0.45833333  0.79166667  1.0
  Ni  Ni26  1  1.00000000  0.79166667  0.79166667  1.0
  Ni  Ni27  1  0.16666667  0.01388889  0.84722222  1.0
  Ni  Ni28  1  0.16666667  0.34722222  0.84722222  1.0
  Ni  Ni29  1  0.16666667  0.68055556  0.84722222  1.0
  Ni  Ni30  1  0.50000000  0.01388889  0.84722222  1.0
  Ni  Ni31  1  0.50000000  0.34722222  0.84722222  1.0
  Ni  Ni32  1  0.50000000  0.68055556  0.84722222  1.0
  Ni  Ni33  1  0.83333333  0.01388889  0.84722222  1.0
  Ni  Ni34  1  0.83333333  0.34722222  0.84722222  1.0
  Ni  Ni35  1  0.83333333  0.68055556  0.84722222  1.0
  Ni  Ni36  1  0.33333333  0.01388889  0.68055556  1.0
  Ni  Ni37  1  0.33333333  0.34722222  0.68055556  1.0
  Ni  Ni38  1  0.33333333  0.68055556  0.68055556  1.0
  Ni  Ni39  1  0.66666667  0.01388889  0.68055556  1.0
  Ni  Ni40  1  0.66666667  0.34722222  0.68055556  1.0
  Ni  Ni41  1  0.66666667  0.68055556  0.68055556  1.0
  Ni  Ni42  1  0.00000000  0.01388889  0.68055556  1.0
  Ni  Ni43  1  1.00000000  0.34722222  0.68055556  1.0
  Ni  Ni44  1  1.00000000  0.68055556  0.68055556  1.0
  Ni  Ni45  1  0.16666667  0.23611111  0.73611111  1.0
  Ni  Ni46  1  0.16666667  0.56944444  0.73611111  1.0
  Ni  Ni47  1  0.16666667  0.90277778  0.73611111  1.0
  Ni  Ni48  1  0.50000000  0.23611111  0.73611111  1.0
  Ni  Ni49  1  0.50000000  0.56944444  0.73611111  1.0
  Ni  Ni50  1  0.50000000  0.90277778  0.73611111  1.0
  Ni  Ni51  1  0.83333333  0.23611111  0.73611111  1.0
  Ni  Ni52  1  0.83333333  0.56944444  0.73611111  1.0
  Ni  Ni53  1  0.83333333  0.90277778  0.73611111  1.0
  Ni  Ni54  1  0.33333333  0.23611111  0.56944444  1.0
  Ni  Ni55  1  0.33333333  0.56944444  0.56944444  1.0
  Ni  Ni56  1  0.33333333  0.90277778  0.56944444  1.0
  Ni  Ni57  1  0.66666667  0.23611111  0.56944444  1.0
  Ni  Ni58  1  0.66666667  0.56944444  0.56944444  1.0
  Ni  Ni59  1  0.66666667  0.90277778  0.56944444  1.0
  Ni  Ni60  1  0.00000000  0.23611111  0.56944444  1.0
  Ni  Ni61  1  0.00000000  0.56944444  0.56944444  1.0
  Ni  Ni62  1  0.00000000  0.90277778  0.56944444  1.0
  Ni  Ni63  1  0.16666667  0.12500000  0.62500000  1.0
  Ni  Ni64  1  0.16666667  0.45833333  0.62500000  1.0
  Ni  Ni65  1  0.16666667  0.79166667  0.62500000  1.0
  Ni  Ni66  1  0.50000000  0.12500000  0.62500000  1.0
  Ni  Ni67  1  0.50000000  0.45833333  0.62500000  1.0
  Ni  Ni68  1  0.50000000  0.79166667  0.62500000  1.0
  Ni  Ni69  1  0.83333333  0.12500000  0.62500000  1.0
  Ni  Ni70  1  0.83333333  0.45833333  0.62500000  1.0
  Ni  Ni71  1  0.83333333  0.79166667  0.62500000  1.0
  Ti  Ti72  1  0.00000000  0.12500000  0.95833333  1.0
  Ti  Ti73  1  0.00000000  0.45833333  0.95833333  1.0
  Ti  Ti74  1  0.00000000  0.79166667  0.95833333  1.0
  Ti  Ti75  1  0.33333333  0.12500000  0.95833333  1.0
  Ti  Ti76  1  0.33333333  0.45833333  0.95833333  1.0
  Ti  Ti77  1  0.33333333  0.79166667  0.95833333  1.0
  Ti  Ti78  1  0.66666667  0.12500000  0.95833333  1.0
  Ti  Ti79  1  0.66666667  0.45833333  0.95833333  1.0
  Ti  Ti80  1  0.66666667  0.79166667  0.95833333  1.0
  Ti  Ti81  1  0.16666667  0.23611111  0.90277778  1.0
  Ti  Ti82  1  0.16666667  0.56944444  0.90277778  1.0
  Ti  Ti83  1  0.16666667  0.90277778  0.90277778  1.0
  Ti  Ti84  1  0.50000000  0.23611111  0.90277778  1.0
  Ti  Ti85  1  0.50000000  0.56944444  0.90277778  1.0
  Ti  Ti86  1  0.50000000  0.90277778  0.90277778  1.0
  Ti  Ti87  1  0.83333333  0.23611111  0.90277778  1.0
  Ti  Ti88  1  0.83333333  0.56944444  0.90277778  1.0
  Ti  Ti89  1  0.83333333  0.90277778  0.90277778  1.0
  Ti  Ti90  1  0.08333333  0.01388889  0.93055556  1.0
  Ti  Ti91  1  0.08333333  0.34722222  0.93055556  1.0
  Ti  Ti92  1  0.08333333  0.68055556  0.93055556  1.0
  Ti  Ti93  1  0.41666667  0.01388889  0.93055556  1.0
  Ti  Ti94  1  0.41666667  0.34722222  0.93055556  1.0
  Ti  Ti95  1  0.41666667  0.68055556  0.93055556  1.0
  Ti  Ti96  1  0.75000000  0.01388889  0.93055556  1.0
  Ti  Ti97  1  0.75000000  0.34722222  0.93055556  1.0
  Ti  Ti98  1  0.75000000  0.68055556  0.93055556  1.0
  Ti  Ti99  1  0.25000000  0.23611111  0.98611111  1.0
  Ti  Ti100  1  0.25000000  0.56944444  0.98611111  1.0
  Ti  Ti101  1  0.25000000  0.90277778  0.98611111  1.0
  Ti  Ti102  1  0.58333333  0.23611111  0.98611111  1.0
  Ti  Ti103  1  0.58333333  0.56944444  0.98611111  1.0
  Ti  Ti104  1  0.58333333  0.90277778  0.98611111  1.0
  Ti  Ti105  1  0.91666667  0.23611111  0.98611111  1.0
  Ti  Ti106  1  0.91666667  0.56944444  0.98611111  1.0
  Ti  Ti107  1  0.91666667  0.90277778  0.98611111  1.0
  Ti  Ti108  1  0.25000000  0.01388889  0.93055556  1.0
  Ti  Ti109  1  0.25000000  0.34722222  0.93055556  1.0
  Ti  Ti110  1  0.25000000  0.68055556  0.93055556  1.0
  Ti  Ti111  1  0.58333333  0.01388889  0.93055556  1.0
  Ti  Ti112  1  0.58333333  0.34722222  0.93055556  1.0
  Ti  Ti113  1  0.58333333  0.68055556  0.93055556  1.0
  Ti  Ti114  1  0.91666667  0.01388889  0.93055556  1.0
  Ti  Ti115  1  0.91666667  0.34722222  0.93055556  1.0
  Ti  Ti116  1  0.91666667  0.68055556  0.93055556  1.0
  Ti  Ti117  1  0.08333333  0.23611111  0.98611111  1.0
  Ti  Ti118  1  0.08333333  0.56944444  0.98611111  1.0
  Ti  Ti119  1  0.08333333  0.90277778  0.98611111  1.0
  Ti  Ti120  1  0.41666667  0.23611111  0.98611111  1.0
  Ti  Ti121  1  0.41666667  0.56944444  0.98611111  1.0
  Ti  Ti122  1  0.41666667  0.90277778  0.98611111  1.0
  Ti  Ti123  1  0.75000000  0.23611111  0.98611111  1.0
  Ti  Ti124  1  0.75000000  0.56944444  0.98611111  1.0
  Ti  Ti125  1  0.75000000  0.90277778  0.98611111  1.0
  Ti  Ti126  1  0.00000000  0.01388889  0.84722222  1.0
  Ti  Ti127  1  0.00000000  0.34722222  0.84722222  1.0
  Ti  Ti128  1  0.00000000  0.68055556  0.84722222  1.0
  Ti  Ti129  1  0.33333333  0.01388889  0.84722222  1.0
  Ti  Ti130  1  0.33333333  0.34722222  0.84722222  1.0
  Ti  Ti131  1  0.33333333  0.68055556  0.84722222  1.0
  Ti  Ti132  1  0.66666667  0.01388889  0.84722222  1.0
  Ti  Ti133  1  0.66666667  0.34722222  0.84722222  1.0
  Ti  Ti134  1  0.66666667  0.68055556  0.84722222  1.0
  Ti  Ti135  1  0.16666667  0.12500000  0.79166667  1.0
  Ti  Ti136  1  0.16666667  0.45833333  0.79166667  1.0
  Ti  Ti137  1  0.16666667  0.79166667  0.79166667  1.0
  Ti  Ti138  1  0.50000000  0.12500000  0.79166667  1.0
  Ti  Ti139  1  0.50000000  0.45833333  0.79166667  1.0
  Ti  Ti140  1  0.50000000  0.79166667  0.79166667  1.0
  Ti  Ti141  1  0.83333333  0.12500000  0.79166667  1.0
  Ti  Ti142  1  0.83333333  0.45833333  0.79166667  1.0
  Ti  Ti143  1  0.83333333  0.79166667  0.79166667  1.0
  Ti  Ti144  1  0.08333333  0.23611111  0.81944444  1.0
  Ti  Ti145  1  0.08333333  0.56944444  0.81944444  1.0
  Ti  Ti146  1  0.08333333  0.90277778  0.81944444  1.0
  Ti  Ti147  1  0.41666667  0.23611111  0.81944444  1.0
  Ti  Ti148  1  0.41666667  0.56944444  0.81944444  1.0
  Ti  Ti149  1  0.41666667  0.90277778  0.81944444  1.0
  Ti  Ti150  1  0.75000000  0.23611111  0.81944444  1.0
  Ti  Ti151  1  0.75000000  0.56944444  0.81944444  1.0
  Ti  Ti152  1  0.75000000  0.90277778  0.81944444  1.0
  Ti  Ti153  1  0.25000000  0.12500000  0.87500000  1.0
  Ti  Ti154  1  0.25000000  0.45833333  0.87500000  1.0
  Ti  Ti155  1  0.25000000  0.79166667  0.87500000  1.0
  Ti  Ti156  1  0.58333333  0.12500000  0.87500000  1.0
  Ti  Ti157  1  0.58333333  0.45833333  0.87500000  1.0
  Ti  Ti158  1  0.58333333  0.79166667  0.87500000  1.0
  Ti  Ti159  1  0.91666667  0.12500000  0.87500000  1.0
  Ti  Ti160  1  0.91666667  0.45833333  0.87500000  1.0
  Ti  Ti161  1  0.91666667  0.79166667  0.87500000  1.0
  Ti  Ti162  1  0.25000000  0.23611111  0.81944444  1.0
  Ti  Ti163  1  0.25000000  0.56944444  0.81944444  1.0
  Ti  Ti164  1  0.25000000  0.90277778  0.81944444  1.0
  Ti  Ti165  1  0.58333333  0.23611111  0.81944444  1.0
  Ti  Ti166  1  0.58333333  0.56944444  0.81944444  1.0
  Ti  Ti167  1  0.58333333  0.90277778  0.81944444  1.0
  Ti  Ti168  1  0.91666667  0.23611111  0.81944444  1.0
  Ti  Ti169  1  0.91666667  0.56944444  0.81944444  1.0
  Ti  Ti170  1  0.91666667  0.90277778  0.81944444  1.0
  Ti  Ti171  1  0.08333333  0.12500000  0.87500000  1.0
  Ti  Ti172  1  0.08333333  0.45833333  0.87500000  1.0
  Ti  Ti173  1  0.08333333  0.79166667  0.87500000  1.0
  Ti  Ti174  1  0.41666667  0.12500000  0.87500000  1.0
  Ti  Ti175  1  0.41666667  0.45833333  0.87500000  1.0
  Ti  Ti176  1  0.41666667  0.79166667  0.87500000  1.0
  Ti  Ti177  1  0.75000000  0.12500000  0.87500000  1.0
  Ti  Ti178  1  0.75000000  0.45833333  0.87500000  1.0
  Ti  Ti179  1  0.75000000  0.79166667  0.87500000  1.0
  Ti  Ti180  1  0.00000000  0.23611111  0.73611111  1.0
  Ti  Ti181  1  0.00000000  0.56944444  0.73611111  1.0
  Ti  Ti182  1  0.00000000  0.90277778  0.73611111  1.0
  Ti  Ti183  1  0.33333333  0.23611111  0.73611111  1.0
  Ti  Ti184  1  0.33333333  0.56944444  0.73611111  1.0
  Ti  Ti185  1  0.33333333  0.90277778  0.73611111  1.0
  Ti  Ti186  1  0.66666667  0.23611111  0.73611111  1.0
  Ti  Ti187  1  0.66666667  0.56944444  0.73611111  1.0
  Ti  Ti188  1  0.66666667  0.90277778  0.73611111  1.0
  Ti  Ti189  1  0.16666667  0.01388889  0.68055556  1.0
  Ti  Ti190  1  0.16666667  0.34722222  0.68055556  1.0
  Ti  Ti191  1  0.16666667  0.68055556  0.68055556  1.0
  Ti  Ti192  1  0.50000000  0.01388889  0.68055556  1.0
  Ti  Ti193  1  0.50000000  0.34722222  0.68055556  1.0
  Ti  Ti194  1  0.50000000  0.68055556  0.68055556  1.0
  Ti  Ti195  1  0.83333333  0.01388889  0.68055556  1.0
  Ti  Ti196  1  0.83333333  0.34722222  0.68055556  1.0
  Ti  Ti197  1  0.83333333  0.68055556  0.68055556  1.0
  Ti  Ti198  1  0.08333333  0.12500000  0.70833333  1.0
  Ti  Ti199  1  0.08333333  0.45833333  0.70833333  1.0
  Ti  Ti200  1  0.08333333  0.79166667  0.70833333  1.0
  Ti  Ti201  1  0.41666667  0.12500000  0.70833333  1.0
  Ti  Ti202  1  0.41666667  0.45833333  0.70833333  1.0
  Ti  Ti203  1  0.41666667  0.79166667  0.70833333  1.0
  Ti  Ti204  1  0.75000000  0.12500000  0.70833333  1.0
  Ti  Ti205  1  0.75000000  0.45833333  0.70833333  1.0
  Ti  Ti206  1  0.75000000  0.79166667  0.70833333  1.0
  Ti  Ti207  1  0.25000000  0.01388889  0.76388889  1.0
  Ti  Ti208  1  0.25000000  0.34722222  0.76388889  1.0
  Ti  Ti209  1  0.25000000  0.68055556  0.76388889  1.0
  Ti  Ti210  1  0.58333333  0.01388889  0.76388889  1.0
  Ti  Ti211  1  0.58333333  0.34722222  0.76388889  1.0
  Ti  Ti212  1  0.58333333  0.68055556  0.76388889  1.0
  Ti  Ti213  1  0.91666667  0.01388889  0.76388889  1.0
  Ti  Ti214  1  0.91666667  0.34722222  0.76388889  1.0
  Ti  Ti215  1  0.91666667  0.68055556  0.76388889  1.0
  Ti  Ti216  1  0.25000000  0.12500000  0.70833333  1.0
  Ti  Ti217  1  0.25000000  0.45833333  0.70833333  1.0
  Ti  Ti218  1  0.25000000  0.79166667  0.70833333  1.0
  Ti  Ti219  1  0.58333333  0.12500000  0.70833333  1.0
  Ti  Ti220  1  0.58333333  0.45833333  0.70833333  1.0
  Ti  Ti221  1  0.58333333  0.79166667  0.70833333  1.0
  Ti  Ti222  1  0.91666667  0.12500000  0.70833333  1.0
  Ti  Ti223  1  0.91666667  0.45833333  0.70833333  1.0
  Ti  Ti224  1  0.91666667  0.79166667  0.70833333  1.0
  Ti  Ti225  1  0.08333333  0.01388889  0.76388889  1.0
  Ti  Ti226  1  0.08333333  0.34722222  0.76388889  1.0
  Ti  Ti227  1  0.08333333  0.68055556  0.76388889  1.0
  Ti  Ti228  1  0.41666667  0.01388889  0.76388889  1.0
  Ti  Ti229  1  0.41666667  0.34722222  0.76388889  1.0
  Ti  Ti230  1  0.41666667  0.68055556  0.76388889  1.0
  Ti  Ti231  1  0.75000000  0.01388889  0.76388889  1.0
  Ti  Ti232  1  0.75000000  0.34722222  0.76388889  1.0
  Ti  Ti233  1  0.75000000  0.68055556  0.76388889  1.0
  Ti  Ti234  1  0.00000000  0.12500000  0.62500000  1.0
  Ti  Ti235  1  0.00000000  0.45833333  0.62500000  1.0
  Ti  Ti236  1  0.00000000  0.79166667  0.62500000  1.0
  Ti  Ti237  1  0.33333333  0.12500000  0.62500000  1.0
  Ti  Ti238  1  0.33333333  0.45833333  0.62500000  1.0
  Ti  Ti239  1  0.33333333  0.79166667  0.62500000  1.0
  Ti  Ti240  1  0.66666667  0.12500000  0.62500000  1.0
  Ti  Ti241  1  0.66666667  0.45833333  0.62500000  1.0
  Ti  Ti242  1  0.66666667  0.79166667  0.62500000  1.0
  Ti  Ti243  1  0.16666667  0.23611111  0.56944444  1.0
  Ti  Ti244  1  0.16666667  0.56944444  0.56944444  1.0
  Ti  Ti245  1  0.16666667  0.90277778  0.56944444  1.0
  Ti  Ti246  1  0.50000000  0.23611111  0.56944444  1.0
  Ti  Ti247  1  0.50000000  0.56944444  0.56944444  1.0
  Ti  Ti248  1  0.50000000  0.90277778  0.56944444  1.0
  Ti  Ti249  1  0.83333333  0.23611111  0.56944444  1.0
  Ti  Ti250  1  0.83333333  0.56944444  0.56944444  1.0
  Ti  Ti251  1  0.83333333  0.90277778  0.56944444  1.0
  Ti  Ti252  1  0.08333333  0.01388889  0.59722222  1.0
  Ti  Ti253  1  0.08333333  0.34722222  0.59722222  1.0
  Ti  Ti254  1  0.08333333  0.68055556  0.59722222  1.0
  Ti  Ti255  1  0.41666667  0.01388889  0.59722222  1.0
  Ti  Ti256  1  0.41666667  0.34722222  0.59722222  1.0
  Ti  Ti257  1  0.41666667  0.68055556  0.59722222  1.0
  Ti  Ti258  1  0.75000000  0.01388889  0.59722222  1.0
  Ti  Ti259  1  0.75000000  0.34722222  0.59722222  1.0
  Ti  Ti260  1  0.75000000  0.68055556  0.59722222  1.0
  Ti  Ti261  1  0.25000000  0.23611111  0.65277778  1.0
  Ti  Ti262  1  0.25000000  0.56944444  0.65277778  1.0
  Ti  Ti263  1  0.25000000  0.90277778  0.65277778  1.0
  Ti  Ti264  1  0.58333333  0.23611111  0.65277778  1.0
  Ti  Ti265  1  0.58333333  0.56944444  0.65277778  1.0
  Ti  Ti266  1  0.58333333  0.90277778  0.65277778  1.0
  Ti  Ti267  1  0.91666667  0.23611111  0.65277778  1.0
  Ti  Ti268  1  0.91666667  0.56944444  0.65277778  1.0
  Ti  Ti269  1  0.91666667  0.90277778  0.65277778  1.0
  Ti  Ti270  1  0.25000000  0.01388889  0.59722222  1.0
  Ti  Ti271  1  0.25000000  0.34722222  0.59722222  1.0
  Ti  Ti272  1  0.25000000  0.68055556  0.59722222  1.0
  Ti  Ti273  1  0.58333333  0.01388889  0.59722222  1.0
  Ti  Ti274  1  0.58333333  0.34722222  0.59722222  1.0
  Ti  Ti275  1  0.58333333  0.68055556  0.59722222  1.0
  Ti  Ti276  1  0.91666667  0.01388889  0.59722222  1.0
  Ti  Ti277  1  0.91666667  0.34722222  0.59722222  1.0
  Ti  Ti278  1  0.91666667  0.68055556  0.59722222  1.0
  Ti  Ti279  1  0.08333333  0.23611111  0.65277778  1.0
  Ti  Ti280  1  0.08333333  0.56944444  0.65277778  1.0
  Ti  Ti281  1  0.08333333  0.90277778  0.65277778  1.0
  Ti  Ti282  1  0.41666667  0.23611111  0.65277778  1.0
  Ti  Ti283  1  0.41666667  0.56944444  0.65277778  1.0
  Ti  Ti284  1  0.41666667  0.90277778  0.65277778  1.0
  Ti  Ti285  1  0.75000000  0.23611111  0.65277778  1.0
  Ti  Ti286  1  0.75000000  0.56944444  0.65277778  1.0
  Ti  Ti287  1  0.75000000  0.90277778  0.65277778  1.0
