# generated using pymatgen
data_Ti3Ni
_symmetry_space_group_name_H-M   'P 1'
_cell_length_a   28.29830902
_cell_length_b   21.43458798
_cell_length_c   55.49920800
_cell_angle_alpha   49.66098105
_cell_angle_beta   90.00000000
_cell_angle_gamma   48.69184903
_symmetry_Int_Tables_number   1
_chemical_formula_structural   Ti3Ni
_chemical_formula_sum   'Ti270 Ni90'
_cell_volume   12829.71863708
_cell_formula_units_Z   90
loop_
 _symmetry_equiv_pos_site_id
 _symmetry_equiv_pos_as_xyz
  1  'x, y, z'
loop_
 _atom_site_type_symbol
 _atom_site_label
 _atom_site_symmetry_multiplicity
 _atom_site_fract_x
 _atom_site_fract_y
 _atom_site_fract_z
 _atom_site_occupancy
  Ti  Ti0  1  0.05767950  0.16029483  0.02242629  1.0
  Ti  Ti1  1  0.05767950  0.49362817  0.02242629  1.0
  Ti  Ti2  1  0.05767950  0.82696150  0.02242629  1.0
  Ti  Ti3  1  0.39101283  0.16029483  0.02242629  1.0
  Ti  Ti4  1  0.39101283  0.49362817  0.02242629  1.0
  Ti  Ti5  1  0.39101283  0.82696150  0.02242629  1.0
  Ti  Ti6  1  0.72434617  0.16029483  0.02242629  1.0
  Ti  Ti7  1  0.72434617  0.49362817  0.02242629  1.0
  Ti  Ti8  1  0.72434617  0.82696150  0.02242629  1.0
  Ti  Ti9  1  0.11535900  0.16029483  0.06409296  1.0
  Ti  Ti10  1  0.11535900  0.49362817  0.06409296  1.0
  Ti  Ti11  1  0.11535900  0.82696150  0.06409296  1.0
  Ti  Ti12  1  0.44869233  0.16029483  0.06409296  1.0
  Ti  Ti13  1  0.44869233  0.49362817  0.06409296  1.0
  Ti  Ti14  1  0.44869233  0.82696150  0.06409296  1.0
  Ti  Ti15  1  0.78202567  0.16029483  0.06409296  1.0
  Ti  Ti16  1  0.78202567  0.49362817  0.06409296  1.0
  Ti  Ti17  1  0.78202567  0.82696150  0.06409296  1.0
  Ti  Ti18  1  0.27565383  0.00000000  0.02083333  1.0
  Ti  Ti19  1  0.27565383  0.33333333  0.02083333  1.0
  Ti  Ti20  1  0.27565383  0.66666667  0.02083333  1.0
  Ti  Ti21  1  0.60898717  0.00000000  0.02083333  1.0
  Ti  Ti22  1  0.60898717  0.33333333  0.02083333  1.0
  Ti  Ti23  1  0.60898717  0.66666667  0.02083333  1.0
  Ti  Ti24  1  0.94232050  0.00000000  0.02083333  1.0
  Ti  Ti25  1  0.94232050  0.33333333  0.02083333  1.0
  Ti  Ti26  1  0.94232050  0.66666667  0.02083333  1.0
  Ti  Ti27  1  0.27565383  0.17303850  0.06090704  1.0
  Ti  Ti28  1  0.27565383  0.50637183  0.06090704  1.0
  Ti  Ti29  1  0.27565383  0.83970517  0.06090704  1.0
  Ti  Ti30  1  0.60898717  0.17303850  0.06090704  1.0
  Ti  Ti31  1  0.60898717  0.50637183  0.06090704  1.0
  Ti  Ti32  1  0.60898717  0.83970517  0.06090704  1.0
  Ti  Ti33  1  0.94232050  0.17303850  0.06090704  1.0
  Ti  Ti34  1  0.94232050  0.50637183  0.06090704  1.0
  Ti  Ti35  1  0.94232050  0.83970517  0.06090704  1.0
  Ti  Ti36  1  0.21797433  0.17303850  0.01924038  1.0
  Ti  Ti37  1  0.21797433  0.50637183  0.01924037  1.0
  Ti  Ti38  1  0.21797433  0.83970517  0.01924037  1.0
  Ti  Ti39  1  0.55130767  0.17303850  0.01924038  1.0
  Ti  Ti40  1  0.55130767  0.50637183  0.01924038  1.0
  Ti  Ti41  1  0.55130767  0.83970517  0.01924037  1.0
  Ti  Ti42  1  0.88464100  0.17303850  0.01924038  1.0
  Ti  Ti43  1  0.88464100  0.50637183  0.01924038  1.0
  Ti  Ti44  1  0.88464100  0.83970517  0.01924038  1.0
  Ti  Ti45  1  0.05767950  0.00000000  0.06250000  1.0
  Ti  Ti46  1  0.05767950  0.33333333  0.06250000  1.0
  Ti  Ti47  1  0.05767950  0.66666667  0.06250000  1.0
  Ti  Ti48  1  0.39101283  0.00000000  0.06250000  1.0
  Ti  Ti49  1  0.39101283  0.33333333  0.06250000  1.0
  Ti  Ti50  1  0.39101283  0.66666667  0.06250000  1.0
  Ti  Ti51  1  0.72434617  0.00000000  0.06250000  1.0
  Ti  Ti52  1  0.72434617  0.33333333  0.06250000  1.0
  Ti  Ti53  1  0.72434617  0.66666667  0.06250000  1.0
  Ni  Ni54  1  0.22222222  0.00000000  0.06250000  1.0
  Ni  Ni55  1  0.22222222  0.33333333  0.06250000  1.0
  Ni  Ni56  1  0.22222222  0.66666667  0.06250000  1.0
  Ni  Ni57  1  0.55555556  0.00000000  0.06250000  1.0
  Ni  Ni58  1  0.55555556  0.33333333  0.06250000  1.0
  Ni  Ni59  1  0.55555556  0.66666667  0.06250000  1.0
  Ni  Ni60  1  0.88888889  0.00000000  0.06250000  1.0
  Ni  Ni61  1  0.88888889  0.33333333  0.06250000  1.0
  Ni  Ni62  1  0.88888889  0.66666667  0.06250000  1.0
  Ni  Ni63  1  0.11111111  0.00000000  0.02083333  1.0
  Ni  Ni64  1  0.11111111  0.33333333  0.02083333  1.0
  Ni  Ni65  1  0.11111111  0.66666667  0.02083333  1.0
  Ni  Ni66  1  0.44444444  0.00000000  0.02083333  1.0
  Ni  Ni67  1  0.44444444  0.33333333  0.02083333  1.0
  Ni  Ni68  1  0.44444444  0.66666667  0.02083333  1.0
  Ni  Ni69  1  0.77777778  0.00000000  0.02083333  1.0
  Ni  Ni70  1  0.77777778  0.33333333  0.02083333  1.0
  Ni  Ni71  1  0.77777778  0.66666667  0.02083333  1.0
  Ti  Ti72  1  0.05767950  0.16029483  0.10575962  1.0
  Ti  Ti73  1  0.05767950  0.49362817  0.10575962  1.0
  Ti  Ti74  1  0.05767950  0.82696150  0.10575962  1.0
  Ti  Ti75  1  0.39101283  0.16029483  0.10575962  1.0
  Ti  Ti76  1  0.39101283  0.49362817  0.10575962  1.0
  Ti  Ti77  1  0.39101283  0.82696150  0.10575962  1.0
  Ti  Ti78  1  0.72434617  0.16029483  0.10575962  1.0
  Ti  Ti79  1  0.72434617  0.49362817  0.10575962  1.0
  Ti  Ti80  1  0.72434617  0.82696150  0.10575962  1.0
  Ti  Ti81  1  0.11535900  0.16029483  0.14742629  1.0
  Ti  Ti82  1  0.11535900  0.49362817  0.14742629  1.0
  Ti  Ti83  1  0.11535900  0.82696150  0.14742629  1.0
  Ti  Ti84  1  0.44869233  0.16029483  0.14742629  1.0
  Ti  Ti85  1  0.44869233  0.49362817  0.14742629  1.0
  Ti  Ti86  1  0.44869233  0.82696150  0.14742629  1.0
  Ti  Ti87  1  0.78202567  0.16029483  0.14742629  1.0
  Ti  Ti88  1  0.78202567  0.49362817  0.14742629  1.0
  Ti  Ti89  1  0.78202567  0.82696150  0.14742629  1.0
  Ti  Ti90  1  0.27565383  0.00000000  0.10416667  1.0
  Ti  Ti91  1  0.27565383  0.33333333  0.10416667  1.0
  Ti  Ti92  1  0.27565383  0.66666667  0.10416667  1.0
  Ti  Ti93  1  0.60898717  0.00000000  0.10416667  1.0
  Ti  Ti94  1  0.60898717  0.33333333  0.10416667  1.0
  Ti  Ti95  1  0.60898717  0.66666667  0.10416667  1.0
  Ti  Ti96  1  0.94232050  0.00000000  0.10416667  1.0
  Ti  Ti97  1  0.94232050  0.33333333  0.10416667  1.0
  Ti  Ti98  1  0.94232050  0.66666667  0.10416667  1.0
  Ti  Ti99  1  0.27565383  0.17303850  0.14424038  1.0
  Ti  Ti100  1  0.27565383  0.50637183  0.14424037  1.0
  Ti  Ti101  1  0.27565383  0.83970517  0.14424038  1.0
  Ti  Ti102  1  0.60898717  0.17303850  0.14424038  1.0
  Ti  Ti103  1  0.60898717  0.50637183  0.14424037  1.0
  Ti  Ti104  1  0.60898717  0.83970517  0.14424038  1.0
  Ti  Ti105  1  0.94232050  0.17303850  0.14424038  1.0
  Ti  Ti106  1  0.94232050  0.50637183  0.14424037  1.0
  Ti  Ti107  1  0.94232050  0.83970517  0.14424038  1.0
  Ti  Ti108  1  0.21797433  0.17303850  0.10257371  1.0
  Ti  Ti109  1  0.21797433  0.50637183  0.10257371  1.0
  Ti  Ti110  1  0.21797433  0.83970517  0.10257371  1.0
  Ti  Ti111  1  0.55130767  0.17303850  0.10257371  1.0
  Ti  Ti112  1  0.55130767  0.50637183  0.10257371  1.0
  Ti  Ti113  1  0.55130767  0.83970517  0.10257371  1.0
  Ti  Ti114  1  0.88464100  0.17303850  0.10257371  1.0
  Ti  Ti115  1  0.88464100  0.50637183  0.10257371  1.0
  Ti  Ti116  1  0.88464100  0.83970517  0.10257371  1.0
  Ti  Ti117  1  0.05767950  0.00000000  0.14583333  1.0
  Ti  Ti118  1  0.05767950  0.33333333  0.14583333  1.0
  Ti  Ti119  1  0.05767950  0.66666667  0.14583333  1.0
  Ti  Ti120  1  0.39101283  0.00000000  0.14583333  1.0
  Ti  Ti121  1  0.39101283  0.33333333  0.14583333  1.0
  Ti  Ti122  1  0.39101283  0.66666667  0.14583333  1.0
  Ti  Ti123  1  0.72434617  0.00000000  0.14583333  1.0
  Ti  Ti124  1  0.72434617  0.33333333  0.14583333  1.0
  Ti  Ti125  1  0.72434617  0.66666667  0.14583333  1.0
  Ni  Ni126  1  0.22222222  0.00000000  0.14583333  1.0
  Ni  Ni127  1  0.22222222  0.33333333  0.14583333  1.0
  Ni  Ni128  1  0.22222222  0.66666667  0.14583333  1.0
  Ni  Ni129  1  0.55555556  0.00000000  0.14583333  1.0
  Ni  Ni130  1  0.55555556  0.33333333  0.14583333  1.0
  Ni  Ni131  1  0.55555556  0.66666667  0.14583333  1.0
  Ni  Ni132  1  0.88888889  0.00000000  0.14583333  1.0
  Ni  Ni133  1  0.88888889  0.33333333  0.14583333  1.0
  Ni  Ni134  1  0.88888889  0.66666667  0.14583333  1.0
  Ni  Ni135  1  0.11111111  0.00000000  0.10416667  1.0
  Ni  Ni136  1  0.11111111  0.33333333  0.10416667  1.0
  Ni  Ni137  1  0.11111111  0.66666667  0.10416667  1.0
  Ni  Ni138  1  0.44444444  0.00000000  0.10416667  1.0
  Ni  Ni139  1  0.44444444  0.33333333  0.10416667  1.0
  Ni  Ni140  1  0.44444444  0.66666667  0.10416667  1.0
  Ni  Ni141  1  0.77777778  0.00000000  0.10416667  1.0
  Ni  Ni142  1  0.77777778  0.33333333  0.10416667  1.0
  Ni  Ni143  1  0.77777778  0.66666667  0.10416667  1.0
  Ti  Ti144  1  0.05767950  0.16029483  0.18909296  1.0
  Ti  Ti145  1  0.05767950  0.49362817  0.18909296  1.0
  Ti  Ti146  1  0.05767950  0.82696150  0.18909296  1.0
  Ti  Ti147  1  0.39101283  0.16029483  0.18909296  1.0
  Ti  Ti148  1  0.39101283  0.49362817  0.18909296  1.0
  Ti  Ti149  1  0.39101283  0.82696150  0.18909296  1.0
  Ti  Ti150  1  0.72434617  0.16029483  0.18909296  1.0
  Ti  Ti151  1  0.72434617  0.49362817  0.18909296  1.0
  Ti  Ti152  1  0.72434617  0.82696150  0.18909296  1.0
  Ti  Ti153  1  0.11535900  0.16029483  0.23075962  1.0
  Ti  Ti154  1  0.11535900  0.49362817  0.23075963  1.0
  Ti  Ti155  1  0.11535900  0.82696150  0.23075962  1.0
  Ti  Ti156  1  0.44869233  0.16029483  0.23075962  1.0
  Ti  Ti157  1  0.44869233  0.49362817  0.23075963  1.0
  Ti  Ti158  1  0.44869233  0.82696150  0.23075962  1.0
  Ti  Ti159  1  0.78202567  0.16029483  0.23075962  1.0
  Ti  Ti160  1  0.78202567  0.49362817  0.23075963  1.0
  Ti  Ti161  1  0.78202567  0.82696150  0.23075962  1.0
  Ti  Ti162  1  0.27565383  0.00000000  0.18750000  1.0
  Ti  Ti163  1  0.27565383  0.33333333  0.18750000  1.0
  Ti  Ti164  1  0.27565383  0.66666667  0.18750000  1.0
  Ti  Ti165  1  0.60898717  0.00000000  0.18750000  1.0
  Ti  Ti166  1  0.60898717  0.33333333  0.18750000  1.0
  Ti  Ti167  1  0.60898717  0.66666667  0.18750000  1.0
  Ti  Ti168  1  0.94232050  0.00000000  0.18750000  1.0
  Ti  Ti169  1  0.94232050  0.33333333  0.18750000  1.0
  Ti  Ti170  1  0.94232050  0.66666667  0.18750000  1.0
  Ti  Ti171  1  0.27565383  0.17303850  0.22757371  1.0
  Ti  Ti172  1  0.27565383  0.50637183  0.22757371  1.0
  Ti  Ti173  1  0.27565383  0.83970517  0.22757371  1.0
  Ti  Ti174  1  0.60898717  0.17303850  0.22757371  1.0
  Ti  Ti175  1  0.60898717  0.50637183  0.22757371  1.0
  Ti  Ti176  1  0.60898717  0.83970517  0.22757371  1.0
  Ti  Ti177  1  0.94232050  0.17303850  0.22757371  1.0
  Ti  Ti178  1  0.94232050  0.50637183  0.22757371  1.0
  Ti  Ti179  1  0.94232050  0.83970517  0.22757371  1.0
  Ti  Ti180  1  0.21797433  0.17303850  0.18590704  1.0
  Ti  Ti181  1  0.21797433  0.50637183  0.18590704  1.0
  Ti  Ti182  1  0.21797433  0.83970517  0.18590704  1.0
  Ti  Ti183  1  0.55130767  0.17303850  0.18590704  1.0
  Ti  Ti184  1  0.55130767  0.50637183  0.18590704  1.0
  Ti  Ti185  1  0.55130767  0.83970517  0.18590704  1.0
  Ti  Ti186  1  0.88464100  0.17303850  0.18590704  1.0
  Ti  Ti187  1  0.88464100  0.50637183  0.18590704  1.0
  Ti  Ti188  1  0.88464100  0.83970517  0.18590704  1.0
  Ti  Ti189  1  0.05767950  0.00000000  0.22916667  1.0
  Ti  Ti190  1  0.05767950  0.33333333  0.22916667  1.0
  Ti  Ti191  1  0.05767950  0.66666667  0.22916667  1.0
  Ti  Ti192  1  0.39101283  0.00000000  0.22916667  1.0
  Ti  Ti193  1  0.39101283  0.33333333  0.22916667  1.0
  Ti  Ti194  1  0.39101283  0.66666667  0.22916667  1.0
  Ti  Ti195  1  0.72434617  0.00000000  0.22916667  1.0
  Ti  Ti196  1  0.72434617  0.33333333  0.22916667  1.0
  Ti  Ti197  1  0.72434617  0.66666667  0.22916667  1.0
  Ni  Ni198  1  0.22222222  0.00000000  0.22916667  1.0
  Ni  Ni199  1  0.22222222  0.33333333  0.22916667  1.0
  Ni  Ni200  1  0.22222222  0.66666667  0.22916667  1.0
  Ni  Ni201  1  0.55555556  0.00000000  0.22916667  1.0
  Ni  Ni202  1  0.55555556  0.33333333  0.22916667  1.0
  Ni  Ni203  1  0.55555556  0.66666667  0.22916667  1.0
  Ni  Ni204  1  0.88888889  0.00000000  0.22916667  1.0
  Ni  Ni205  1  0.88888889  0.33333333  0.22916667  1.0
  Ni  Ni206  1  0.88888889  0.66666667  0.22916667  1.0
  Ni  Ni207  1  0.11111111  0.00000000  0.18750000  1.0
  Ni  Ni208  1  0.11111111  0.33333333  0.18750000  1.0
  Ni  Ni209  1  0.11111111  0.66666667  0.18750000  1.0
  Ni  Ni210  1  0.44444444  0.00000000  0.18750000  1.0
  Ni  Ni211  1  0.44444444  0.33333333  0.18750000  1.0
  Ni  Ni212  1  0.44444444  0.66666667  0.18750000  1.0
  Ni  Ni213  1  0.77777778  0.00000000  0.18750000  1.0
  Ni  Ni214  1  0.77777778  0.33333333  0.18750000  1.0
  Ni  Ni215  1  0.77777778  0.66666667  0.18750000  1.0
  Ti  Ti216  1  0.05767950  0.16029483  0.27242629  1.0
  Ti  Ti217  1  0.05767950  0.49362817  0.27242629  1.0
  Ti  Ti218  1  0.05767950  0.82696150  0.27242629  1.0
  Ti  Ti219  1  0.39101283  0.16029483  0.27242629  1.0
  Ti  Ti220  1  0.39101283  0.49362817  0.27242629  1.0
  Ti  Ti221  1  0.39101283  0.82696150  0.27242629  1.0
  Ti  Ti222  1  0.72434617  0.16029483  0.27242629  1.0
  Ti  Ti223  1  0.72434617  0.49362817  0.27242629  1.0
  Ti  Ti224  1  0.72434617  0.82696150  0.27242629  1.0
  Ti  Ti225  1  0.11535900  0.16029483  0.31409296  1.0
  Ti  Ti226  1  0.11535900  0.49362817  0.31409296  1.0
  Ti  Ti227  1  0.11535900  0.82696150  0.31409296  1.0
  Ti  Ti228  1  0.44869233  0.16029483  0.31409296  1.0
  Ti  Ti229  1  0.44869233  0.49362817  0.31409296  1.0
  Ti  Ti230  1  0.44869233  0.82696150  0.31409296  1.0
  Ti  Ti231  1  0.78202567  0.16029483  0.31409296  1.0
  Ti  Ti232  1  0.78202567  0.49362817  0.31409296  1.0
  Ti  Ti233  1  0.78202567  0.82696150  0.31409296  1.0
  Ti  Ti234  1  0.27565383  0.00000000  0.27083333  1.0
  Ti  Ti235  1  0.27565383  0.33333333  0.27083333  1.0
  Ti  Ti236  1  0.27565383  0.66666667  0.27083333  1.0
  Ti  Ti237  1  0.60898717  0.00000000  0.27083333  1.0
  Ti  Ti238  1  0.60898717  0.33333333  0.27083333  1.0
  Ti  Ti239  1  0.60898717  0.66666667  0.27083333  1.0
  Ti  Ti240  1  0.94232050  0.00000000  0.27083333  1.0
  Ti  Ti241  1  0.94232050  0.33333333  0.27083333  1.0
  Ti  Ti242  1  0.94232050  0.66666667  0.27083333  1.0
  Ti  Ti243  1  0.27565383  0.17303850  0.31090704  1.0
  Ti  Ti244  1  0.27565383  0.50637183  0.31090704  1.0
  Ti  Ti245  1  0.27565383  0.83970517  0.31090704  1.0
  Ti  Ti246  1  0.60898717  0.17303850  0.31090704  1.0
  Ti  Ti247  1  0.60898717  0.50637183  0.31090704  1.0
  Ti  Ti248  1  0.60898717  0.83970517  0.31090704  1.0
  Ti  Ti249  1  0.94232050  0.17303850  0.31090704  1.0
  Ti  Ti250  1  0.94232050  0.50637183  0.31090704  1.0
  Ti  Ti251  1  0.94232050  0.83970517  0.31090704  1.0
  Ti  Ti252  1  0.21797433  0.17303850  0.26924038  1.0
  Ti  Ti253  1  0.21797433  0.50637183  0.26924037  1.0
  Ti  Ti254  1  0.21797433  0.83970517  0.26924037  1.0
  Ti  Ti255  1  0.55130767  0.17303850  0.26924038  1.0
  Ti  Ti256  1  0.55130767  0.50637183  0.26924038  1.0
  Ti  Ti257  1  0.55130767  0.83970517  0.26924037  1.0
  Ti  Ti258  1  0.88464100  0.17303850  0.26924038  1.0
  Ti  Ti259  1  0.88464100  0.50637183  0.26924038  1.0
  Ti  Ti260  1  0.88464100  0.83970517  0.26924038  1.0
  Ti  Ti261  1  0.05767950  0.00000000  0.31250000  1.0
  Ti  Ti262  1  0.05767950  0.33333333  0.31250000  1.0
  Ti  Ti263  1  0.05767950  0.66666667  0.31250000  1.0
  Ti  Ti264  1  0.39101283  0.00000000  0.31250000  1.0
  Ti  Ti265  1  0.39101283  0.33333333  0.31250000  1.0
  Ti  Ti266  1  0.39101283  0.66666667  0.31250000  1.0
  Ti  Ti267  1  0.72434617  0.00000000  0.31250000  1.0
  Ti  Ti268  1  0.72434617  0.33333333  0.31250000  1.0
  Ti  Ti269  1  0.72434617  0.66666667  0.31250000  1.0
  Ni  Ni270  1  0.22222222  0.00000000  0.31250000  1.0
  Ni  Ni271  1  0.22222222  0.33333333  0.31250000  1.0
  Ni  Ni272  1  0.22222222  0.66666667  0.31250000  1.0
  Ni  Ni273  1  0.55555556  0.00000000  0.31250000  1.0
  Ni  Ni274  1  0.55555556  0.33333333  0.31250000  1.0
  Ni  Ni275  1  0.55555556  0.66666667  0.31250000  1.0
  Ni  Ni276  1  0.88888889  0.00000000  0.31250000  1.0
  Ni  Ni277  1  0.88888889  0.33333333  0.31250000  1.0
  Ni  Ni278  1  0.88888889  0.66666667  0.31250000  1.0
  Ni  Ni279  1  0.11111111  0.00000000  0.27083333  1.0
  Ni  Ni280  1  0.11111111  0.33333333  0.27083333  1.0
  Ni  Ni281  1  0.11111111  0.66666667  0.27083333  1.0
  Ni  Ni282  1  0.44444444  0.00000000  0.27083333  1.0
  Ni  Ni283  1  0.44444444  0.33333333  0.27083333  1.0
  Ni  Ni284  1  0.44444444  0.66666667  0.27083333  1.0
  Ni  Ni285  1  0.77777778  0.00000000  0.27083333  1.0
  Ni  Ni286  1  0.77777778  0.33333333  0.27083333  1.0
  Ni  Ni287  1  0.77777778  0.66666667  0.27083333  1.0
  Ti  Ti288  1  0.05767950  0.16029483  0.35575962  1.0
  Ti  Ti289  1  0.05767950  0.49362817  0.35575962  1.0
  Ti  Ti290  1  0.05767950  0.82696150  0.35575962  1.0
  Ti  Ti291  1  0.39101283  0.16029483  0.35575962  1.0
  Ti  Ti292  1  0.39101283  0.49362817  0.35575962  1.0
  Ti  Ti293  1  0.39101283  0.82696150  0.35575962  1.0
  Ti  Ti294  1  0.72434617  0.16029483  0.35575962  1.0
  Ti  Ti295  1  0.72434617  0.49362817  0.35575962  1.0
  Ti  Ti296  1  0.72434617  0.82696150  0.35575963  1.0
  Ti  Ti297  1  0.11535900  0.16029483  0.39742629  1.0
  Ti  Ti298  1  0.11535900  0.49362817  0.39742629  1.0
  Ti  Ti299  1  0.11535900  0.82696150  0.39742629  1.0
  Ti  Ti300  1  0.44869233  0.16029483  0.39742629  1.0
  Ti  Ti301  1  0.44869233  0.49362817  0.39742629  1.0
  Ti  Ti302  1  0.44869233  0.82696150  0.39742629  1.0
  Ti  Ti303  1  0.78202567  0.16029483  0.39742629  1.0
  Ti  Ti304  1  0.78202567  0.49362817  0.39742629  1.0
  Ti  Ti305  1  0.78202567  0.82696150  0.39742629  1.0
  Ti  Ti306  1  0.27565383  0.00000000  0.35416667  1.0
  Ti  Ti307  1  0.27565383  0.33333333  0.35416667  1.0
  Ti  Ti308  1  0.27565383  0.66666667  0.35416667  1.0
  Ti  Ti309  1  0.60898717  0.00000000  0.35416667  1.0
  Ti  Ti310  1  0.60898717  0.33333333  0.35416667  1.0
  Ti  Ti311  1  0.60898717  0.66666667  0.35416667  1.0
  Ti  Ti312  1  0.94232050  0.00000000  0.35416667  1.0
  Ti  Ti313  1  0.94232050  0.33333333  0.35416667  1.0
  Ti  Ti314  1  0.94232050  0.66666667  0.35416667  1.0
  Ti  Ti315  1  0.27565383  0.17303850  0.39424037  1.0
  Ti  Ti316  1  0.27565383  0.50637183  0.39424037  1.0
  Ti  Ti317  1  0.27565383  0.83970517  0.39424037  1.0
  Ti  Ti318  1  0.60898717  0.17303850  0.39424037  1.0
  Ti  Ti319  1  0.60898717  0.50637183  0.39424037  1.0
  Ti  Ti320  1  0.60898717  0.83970517  0.39424037  1.0
  Ti  Ti321  1  0.94232050  0.17303850  0.39424037  1.0
  Ti  Ti322  1  0.94232050  0.50637183  0.39424037  1.0
  Ti  Ti323  1  0.94232050  0.83970517  0.39424037  1.0
  Ti  Ti324  1  0.21797433  0.17303850  0.35257371  1.0
  Ti  Ti325  1  0.21797433  0.50637183  0.35257371  1.0
  Ti  Ti326  1  0.21797433  0.83970517  0.35257371  1.0
  Ti  Ti327  1  0.55130767  0.17303850  0.35257371  1.0
  Ti  Ti328  1  0.55130767  0.50637183  0.35257371  1.0
  Ti  Ti329  1  0.55130767  0.83970517  0.35257371  1.0
  Ti  Ti330  1  0.88464100  0.17303850  0.35257371  1.0
  Ti  Ti331  1  0.88464100  0.50637183  0.35257371  1.0
  Ti  Ti332  1  0.88464100  0.83970517  0.35257371  1.0
  Ti  Ti333  1  0.05767950  0.00000000  0.39583333  1.0
  Ti  Ti334  1  0.05767950  0.33333333  0.39583333  1.0
  Ti  Ti335  1  0.05767950  0.66666667  0.39583333  1.0
  Ti  Ti336  1  0.39101283  0.00000000  0.39583333  1.0
  Ti  Ti337  1  0.39101283  0.33333333  0.39583333  1.0
  Ti  Ti338  1  0.39101283  0.66666667  0.39583333  1.0
  Ti  Ti339  1  0.72434617  0.00000000  0.39583333  1.0
  Ti  Ti340  1  0.72434617  0.33333333  0.39583333  1.0
  Ti  Ti341  1  0.72434617  0.66666667  0.39583333  1.0
  Ni  Ni342  1  0.22222222  0.00000000  0.39583333  1.0
  Ni  Ni343  1  0.22222222  0.33333333  0.39583333  1.0
  Ni  Ni344  1  0.22222222  0.66666667  0.39583333  1.0
  Ni  Ni345  1  0.55555556  0.00000000  0.39583333  1.0
  Ni  Ni346  1  0.55555556  0.33333333  0.39583333  1.0
  Ni  Ni347  1  0.55555556  0.66666667  0.39583333  1.0
  Ni  Ni348  1  0.88888889  0.00000000  0.39583333  1.0
  Ni  Ni349  1  0.88888889  0.33333333  0.39583333  1.0
  Ni  Ni350  1  0.88888889  0.66666667  0.39583333  1.0
  Ni  Ni351  1  0.11111111  0.00000000  0.35416667  1.0
  Ni  Ni352  1  0.11111111  0.33333333  0.35416667  1.0
  Ni  Ni353  1  0.11111111  0.66666667  0.35416667  1.0
  Ni  Ni354  1  0.44444444  0.00000000  0.35416667  1.0
  Ni  Ni355  1  0.44444444  0.33333333  0.35416667  1.0
  Ni  Ni356  1  0.44444444  0.66666667  0.35416667  1.0
  Ni  Ni357  1  0.77777778  0.00000000  0.35416667  1.0
  Ni  Ni358  1  0.77777778  0.33333333  0.35416667  1.0
  Ni  Ni359  1  0.77777778  0.66666667  0.35416667  1.0
