# generated using pymatgen
data_Ti3Ni4
_symmetry_space_group_name_H-M   'P 1'
_cell_length_a   20.07130308
_cell_length_b   36.90429572
_cell_length_c   33.45217180
_cell_angle_alpha   84.05820048
_cell_angle_beta   113.88064020
_cell_angle_gamma   131.34064041
_symmetry_Int_Tables_number   1
_chemical_formula_structural   Ti3Ni4
_chemical_formula_sum   'Ti216 Ni288'
_cell_volume   16519.20114401
_cell_formula_units_Z   72
loop_
 _symmetry_equiv_pos_site_id
 _symmetry_equiv_pos_as_xyz
  1  'x, y, z'
loop_
 _atom_site_type_symbol
 _atom_site_label
 _atom_site_symmetry_multiplicity
 _atom_site_fract_x
 _atom_site_fract_y
 _atom_site_fract_z
 _atom_site_occupancy
  Ti  Ti0  1  0.29712067  0.12622983  0.01829400  1.0
  Ti  Ti1  1  0.29712067  0.45956317  0.01829400  1.0
  Ti  Ti2  1  0.29712067  0.79289650  0.01829400  1.0
  Ti  Ti3  1  0.63045400  0.12622983  0.01829400  1.0
  Ti  Ti4  1  0.63045400  0.45956317  0.01829400  1.0
  Ti  Ti5  1  0.63045400  0.79289650  0.01829400  1.0
  Ti  Ti6  1  0.96378733  0.12622983  0.01829400  1.0
  Ti  Ti7  1  0.96378733  0.45956317  0.01829400  1.0
  Ti  Ti8  1  0.96378733  0.79289650  0.01829400  1.0
  Ti  Ti9  1  0.29712067  0.29289650  0.11829400  1.0
  Ti  Ti10  1  0.29712067  0.62622983  0.11829400  1.0
  Ti  Ti11  1  0.29712067  0.95956317  0.11829400  1.0
  Ti  Ti12  1  0.63045400  0.29289650  0.11829400  1.0
  Ti  Ti13  1  0.63045400  0.62622983  0.11829400  1.0
  Ti  Ti14  1  0.63045400  0.95956317  0.11829400  1.0
  Ti  Ti15  1  0.96378733  0.29289650  0.11829400  1.0
  Ti  Ti16  1  0.96378733  0.62622983  0.11829400  1.0
  Ti  Ti17  1  0.96378733  0.95956317  0.11829400  1.0
  Ti  Ti18  1  0.16851533  0.01810633  0.03280150  1.0
  Ti  Ti19  1  0.16851533  0.35143967  0.03280150  1.0
  Ti  Ti20  1  0.16851533  0.68477300  0.03280150  1.0
  Ti  Ti21  1  0.50184867  0.01810633  0.03280150  1.0
  Ti  Ti22  1  0.50184867  0.35143967  0.03280150  1.0
  Ti  Ti23  1  0.50184867  0.68477300  0.03280150  1.0
  Ti  Ti24  1  0.83518200  0.01810633  0.03280150  1.0
  Ti  Ti25  1  0.83518200  0.35143967  0.03280150  1.0
  Ti  Ti26  1  0.83518200  0.68477300  0.03280150  1.0
  Ti  Ti27  1  0.16851533  0.18477300  0.13280150  1.0
  Ti  Ti28  1  0.16851533  0.51810633  0.13280150  1.0
  Ti  Ti29  1  0.16851533  0.85143967  0.13280150  1.0
  Ti  Ti30  1  0.50184867  0.18477300  0.13280150  1.0
  Ti  Ti31  1  0.50184867  0.51810633  0.13280150  1.0
  Ti  Ti32  1  0.50184867  0.85143967  0.13280150  1.0
  Ti  Ti33  1  0.83518200  0.18477300  0.13280150  1.0
  Ti  Ti34  1  0.83518200  0.51810633  0.13280150  1.0
  Ti  Ti35  1  0.83518200  0.85143967  0.13280150  1.0
  Ti  Ti36  1  0.03621267  0.04043683  0.07198820  1.0
  Ti  Ti37  1  0.03621267  0.37377017  0.07198820  1.0
  Ti  Ti38  1  0.03621267  0.70710350  0.07198820  1.0
  Ti  Ti39  1  0.36954600  0.04043683  0.07198820  1.0
  Ti  Ti40  1  0.36954600  0.37377017  0.07198820  1.0
  Ti  Ti41  1  0.36954600  0.70710350  0.07198820  1.0
  Ti  Ti42  1  0.70287933  0.04043683  0.07198820  1.0
  Ti  Ti43  1  0.70287933  0.37377017  0.07198820  1.0
  Ti  Ti44  1  0.70287933  0.70710350  0.07198820  1.0
  Ti  Ti45  1  0.03621267  0.20710350  0.17198820  1.0
  Ti  Ti46  1  0.03621267  0.54043683  0.17198820  1.0
  Ti  Ti47  1  0.03621267  0.87377017  0.17198820  1.0
  Ti  Ti48  1  0.36954600  0.20710350  0.17198820  1.0
  Ti  Ti49  1  0.36954600  0.54043683  0.17198820  1.0
  Ti  Ti50  1  0.36954600  0.87377017  0.17198820  1.0
  Ti  Ti51  1  0.70287933  0.20710350  0.17198820  1.0
  Ti  Ti52  1  0.70287933  0.54043683  0.17198820  1.0
  Ti  Ti53  1  0.70287933  0.87377017  0.17198820  1.0
  Ti  Ti54  1  0.08087367  0.08425767  0.16631410  1.0
  Ti  Ti55  1  0.08087367  0.41759100  0.16631410  1.0
  Ti  Ti56  1  0.08087367  0.75092433  0.16631410  1.0
  Ti  Ti57  1  0.41420700  0.08425767  0.16631410  1.0
  Ti  Ti58  1  0.41420700  0.41759100  0.16631410  1.0
  Ti  Ti59  1  0.41420700  0.75092433  0.16631410  1.0
  Ti  Ti60  1  0.74754033  0.08425767  0.16631410  1.0
  Ti  Ti61  1  0.74754033  0.41759100  0.16631410  1.0
  Ti  Ti62  1  0.74754033  0.75092433  0.16631410  1.0
  Ti  Ti63  1  0.08087367  0.25092433  0.06631410  1.0
  Ti  Ti64  1  0.08087367  0.58425767  0.06631410  1.0
  Ti  Ti65  1  0.08087367  0.91759100  0.06631410  1.0
  Ti  Ti66  1  0.41420700  0.25092433  0.06631410  1.0
  Ti  Ti67  1  0.41420700  0.58425767  0.06631410  1.0
  Ti  Ti68  1  0.41420700  0.91759100  0.06631410  1.0
  Ti  Ti69  1  0.74754033  0.25092433  0.06631410  1.0
  Ti  Ti70  1  0.74754033  0.58425767  0.06631410  1.0
  Ti  Ti71  1  0.74754033  0.91759100  0.06631410  1.0
  Ti  Ti72  1  0.25245967  0.08240900  0.12396810  1.0
  Ti  Ti73  1  0.25245967  0.41574233  0.12396810  1.0
  Ti  Ti74  1  0.25245967  0.74907567  0.12396810  1.0
  Ti  Ti75  1  0.58579300  0.08240900  0.12396810  1.0
  Ti  Ti76  1  0.58579300  0.41574233  0.12396810  1.0
  Ti  Ti77  1  0.58579300  0.74907567  0.12396810  1.0
  Ti  Ti78  1  0.91912633  0.08240900  0.12396810  1.0
  Ti  Ti79  1  0.91912633  0.41574233  0.12396810  1.0
  Ti  Ti80  1  0.91912633  0.74907567  0.12396810  1.0
  Ti  Ti81  1  0.25245967  0.24907567  0.02396810  1.0
  Ti  Ti82  1  0.25245967  0.58240900  0.02396810  1.0
  Ti  Ti83  1  0.25245967  0.91574233  0.02396810  1.0
  Ti  Ti84  1  0.58579300  0.24907567  0.02396810  1.0
  Ti  Ti85  1  0.58579300  0.58240900  0.02396810  1.0
  Ti  Ti86  1  0.58579300  0.91574233  0.02396810  1.0
  Ti  Ti87  1  0.91912633  0.24907567  0.02396810  1.0
  Ti  Ti88  1  0.91912633  0.58240900  0.02396810  1.0
  Ti  Ti89  1  0.91912633  0.91574233  0.02396810  1.0
  Ti  Ti90  1  0.16481800  0.14856033  0.05748070  1.0
  Ti  Ti91  1  0.16481800  0.48189367  0.05748070  1.0
  Ti  Ti92  1  0.16481800  0.81522700  0.05748070  1.0
  Ti  Ti93  1  0.49815133  0.14856033  0.05748070  1.0
  Ti  Ti94  1  0.49815133  0.48189367  0.05748070  1.0
  Ti  Ti95  1  0.49815133  0.81522700  0.05748070  1.0
  Ti  Ti96  1  0.83148467  0.14856033  0.05748070  1.0
  Ti  Ti97  1  0.83148467  0.48189367  0.05748070  1.0
  Ti  Ti98  1  0.83148467  0.81522700  0.05748070  1.0
  Ti  Ti99  1  0.16481800  0.31522700  0.15748070  1.0
  Ti  Ti100  1  0.16481800  0.64856033  0.15748070  1.0
  Ti  Ti101  1  0.16481800  0.98189367  0.15748070  1.0
  Ti  Ti102  1  0.49815133  0.31522700  0.15748070  1.0
  Ti  Ti103  1  0.49815133  0.64856033  0.15748070  1.0
  Ti  Ti104  1  0.49815133  0.98189367  0.15748070  1.0
  Ti  Ti105  1  0.83148467  0.31522700  0.15748070  1.0
  Ti  Ti106  1  0.83148467  0.64856033  0.15748070  1.0
  Ti  Ti107  1  0.83148467  0.98189367  0.15748070  1.0
  Ni  Ni108  1  0.24789100  0.01004500  0.10601890  1.0
  Ni  Ni109  1  0.24789100  0.34337833  0.10601890  1.0
  Ni  Ni110  1  0.24789100  0.67671167  0.10601890  1.0
  Ni  Ni111  1  0.58122433  0.01004500  0.10601890  1.0
  Ni  Ni112  1  0.58122433  0.34337833  0.10601890  1.0
  Ni  Ni113  1  0.58122433  0.67671167  0.10601890  1.0
  Ni  Ni114  1  0.91455767  0.01004500  0.10601890  1.0
  Ni  Ni115  1  0.91455767  0.34337833  0.10601890  1.0
  Ni  Ni116  1  0.91455767  0.67671167  0.10601890  1.0
  Ni  Ni117  1  0.24789100  0.17671167  0.00601890  1.0
  Ni  Ni118  1  0.24789100  0.51004500  0.00601890  1.0
  Ni  Ni119  1  0.24789100  0.84337833  0.00601890  1.0
  Ni  Ni120  1  0.58122433  0.17671167  0.00601890  1.0
  Ni  Ni121  1  0.58122433  0.51004500  0.00601890  1.0
  Ni  Ni122  1  0.58122433  0.84337833  0.00601890  1.0
  Ni  Ni123  1  0.91455767  0.17671167  0.00601890  1.0
  Ni  Ni124  1  0.91455767  0.51004500  0.00601890  1.0
  Ni  Ni125  1  0.91455767  0.84337833  0.00601890  1.0
  Ni  Ni126  1  0.08544233  0.15662167  0.18426330  1.0
  Ni  Ni127  1  0.08544233  0.48995500  0.18426330  1.0
  Ni  Ni128  1  0.08544233  0.82328833  0.18426330  1.0
  Ni  Ni129  1  0.41877567  0.15662167  0.18426330  1.0
  Ni  Ni130  1  0.41877567  0.48995500  0.18426330  1.0
  Ni  Ni131  1  0.41877567  0.82328833  0.18426330  1.0
  Ni  Ni132  1  0.75210900  0.15662167  0.18426330  1.0
  Ni  Ni133  1  0.75210900  0.48995500  0.18426330  1.0
  Ni  Ni134  1  0.75210900  0.82328833  0.18426330  1.0
  Ni  Ni135  1  0.08544233  0.32328833  0.08426330  1.0
  Ni  Ni136  1  0.08544233  0.65662167  0.08426330  1.0
  Ni  Ni137  1  0.08544233  0.98995500  0.08426330  1.0
  Ni  Ni138  1  0.41877567  0.32328833  0.08426330  1.0
  Ni  Ni139  1  0.41877567  0.65662167  0.08426330  1.0
  Ni  Ni140  1  0.41877567  0.98995500  0.08426330  1.0
  Ni  Ni141  1  0.75210900  0.32328833  0.08426330  1.0
  Ni  Ni142  1  0.75210900  0.65662167  0.08426330  1.0
  Ni  Ni143  1  0.75210900  0.98995500  0.08426330  1.0
  Ni  Ni144  1  0.02009000  0.09742067  0.08542330  1.0
  Ni  Ni145  1  0.02009000  0.43075400  0.08542330  1.0
  Ni  Ni146  1  0.02009000  0.76408733  0.08542330  1.0
  Ni  Ni147  1  0.35342333  0.09742067  0.08542330  1.0
  Ni  Ni148  1  0.35342333  0.43075400  0.08542330  1.0
  Ni  Ni149  1  0.35342333  0.76408733  0.08542330  1.0
  Ni  Ni150  1  0.68675667  0.09742067  0.08542330  1.0
  Ni  Ni151  1  0.68675667  0.43075400  0.08542330  1.0
  Ni  Ni152  1  0.68675667  0.76408733  0.08542330  1.0
  Ni  Ni153  1  0.02009000  0.26408733  0.18542330  1.0
  Ni  Ni154  1  0.02009000  0.59742067  0.18542330  1.0
  Ni  Ni155  1  0.02009000  0.93075400  0.18542330  1.0
  Ni  Ni156  1  0.35342333  0.26408733  0.18542330  1.0
  Ni  Ni157  1  0.35342333  0.59742067  0.18542330  1.0
  Ni  Ni158  1  0.35342333  0.93075400  0.18542330  1.0
  Ni  Ni159  1  0.68675667  0.26408733  0.18542330  1.0
  Ni  Ni160  1  0.68675667  0.59742067  0.18542330  1.0
  Ni  Ni161  1  0.68675667  0.93075400  0.18542330  1.0
  Ni  Ni162  1  0.19484133  0.12394550  0.13282780  1.0
  Ni  Ni163  1  0.19484133  0.45727883  0.13282780  1.0
  Ni  Ni164  1  0.19484133  0.79061217  0.13282780  1.0
  Ni  Ni165  1  0.52817467  0.12394550  0.13282780  1.0
  Ni  Ni166  1  0.52817467  0.45727883  0.13282780  1.0
  Ni  Ni167  1  0.52817467  0.79061217  0.13282780  1.0
  Ni  Ni168  1  0.86150800  0.12394550  0.13282780  1.0
  Ni  Ni169  1  0.86150800  0.45727883  0.13282780  1.0
  Ni  Ni170  1  0.86150800  0.79061217  0.13282780  1.0
  Ni  Ni171  1  0.19484133  0.29061217  0.03282780  1.0
  Ni  Ni172  1  0.19484133  0.62394550  0.03282780  1.0
  Ni  Ni173  1  0.19484133  0.95727883  0.03282780  1.0
  Ni  Ni174  1  0.52817467  0.29061217  0.03282780  1.0
  Ni  Ni175  1  0.52817467  0.62394550  0.03282780  1.0
  Ni  Ni176  1  0.52817467  0.95727883  0.03282780  1.0
  Ni  Ni177  1  0.86150800  0.29061217  0.03282780  1.0
  Ni  Ni178  1  0.86150800  0.62394550  0.03282780  1.0
  Ni  Ni179  1  0.86150800  0.95727883  0.03282780  1.0
  Ni  Ni180  1  0.31324333  0.06924600  0.00485890  1.0
  Ni  Ni181  1  0.31324333  0.40257933  0.00485890  1.0
  Ni  Ni182  1  0.31324333  0.73591267  0.00485890  1.0
  Ni  Ni183  1  0.64657667  0.06924600  0.00485890  1.0
  Ni  Ni184  1  0.64657667  0.40257933  0.00485890  1.0
  Ni  Ni185  1  0.64657667  0.73591267  0.00485890  1.0
  Ni  Ni186  1  0.97991000  0.06924600  0.00485890  1.0
  Ni  Ni187  1  0.97991000  0.40257933  0.00485890  1.0
  Ni  Ni188  1  0.97991000  0.73591267  0.00485890  1.0
  Ni  Ni189  1  0.31324333  0.23591267  0.10485890  1.0
  Ni  Ni190  1  0.31324333  0.56924600  0.10485890  1.0
  Ni  Ni191  1  0.31324333  0.90257933  0.10485890  1.0
  Ni  Ni192  1  0.64657667  0.23591267  0.10485890  1.0
  Ni  Ni193  1  0.64657667  0.56924600  0.10485890  1.0
  Ni  Ni194  1  0.64657667  0.90257933  0.10485890  1.0
  Ni  Ni195  1  0.97991000  0.23591267  0.10485890  1.0
  Ni  Ni196  1  0.97991000  0.56924600  0.10485890  1.0
  Ni  Ni197  1  0.97991000  0.90257933  0.10485890  1.0
  Ni  Ni198  1  0.00000000  0.16666667  0.09514110  1.0
  Ni  Ni199  1  0.00000000  0.50000000  0.09514110  1.0
  Ni  Ni200  1  0.00000000  0.83333333  0.09514110  1.0
  Ni  Ni201  1  0.33333333  0.16666667  0.09514110  1.0
  Ni  Ni202  1  0.33333333  0.50000000  0.09514110  1.0
  Ni  Ni203  1  0.33333333  0.83333333  0.09514110  1.0
  Ni  Ni204  1  0.66666667  0.16666667  0.09514110  1.0
  Ni  Ni205  1  0.66666667  0.50000000  0.09514110  1.0
  Ni  Ni206  1  0.66666667  0.83333333  0.09514110  1.0
  Ni  Ni207  1  0.00000000  0.00000000  0.19514110  1.0
  Ni  Ni208  1  0.00000000  0.33333333  0.19514110  1.0
  Ni  Ni209  1  0.00000000  0.66666667  0.19514110  1.0
  Ni  Ni210  1  0.33333333  0.00000000  0.19514110  1.0
  Ni  Ni211  1  0.33333333  0.33333333  0.19514110  1.0
  Ni  Ni212  1  0.33333333  0.66666667  0.19514110  1.0
  Ni  Ni213  1  0.66666667  0.00000000  0.19514110  1.0
  Ni  Ni214  1  0.66666667  0.33333333  0.19514110  1.0
  Ni  Ni215  1  0.66666667  0.66666667  0.19514110  1.0
  Ni  Ni216  1  0.13849200  0.04272117  0.15745440  1.0
  Ni  Ni217  1  0.13849200  0.37605450  0.15745440  1.0
  Ni  Ni218  1  0.13849200  0.70938783  0.15745440  1.0
  Ni  Ni219  1  0.47182533  0.04272117  0.15745440  1.0
  Ni  Ni220  1  0.47182533  0.37605450  0.15745440  1.0
  Ni  Ni221  1  0.47182533  0.70938783  0.15745440  1.0
  Ni  Ni222  1  0.80515867  0.04272117  0.15745440  1.0
  Ni  Ni223  1  0.80515867  0.37605450  0.15745440  1.0
  Ni  Ni224  1  0.80515867  0.70938783  0.15745440  1.0
  Ni  Ni225  1  0.13849200  0.20938783  0.05745440  1.0
  Ni  Ni226  1  0.13849200  0.54272117  0.05745440  1.0
  Ni  Ni227  1  0.13849200  0.87605450  0.05745440  1.0
  Ni  Ni228  1  0.47182533  0.20938783  0.05745440  1.0
  Ni  Ni229  1  0.47182533  0.54272117  0.05745440  1.0
  Ni  Ni230  1  0.47182533  0.87605450  0.05745440  1.0
  Ni  Ni231  1  0.80515867  0.20938783  0.05745440  1.0
  Ni  Ni232  1  0.80515867  0.54272117  0.05745440  1.0
  Ni  Ni233  1  0.80515867  0.87605450  0.05745440  1.0
  Ni  Ni234  1  0.16666667  0.08333333  0.04514110  1.0
  Ni  Ni235  1  0.16666667  0.41666667  0.04514110  1.0
  Ni  Ni236  1  0.16666667  0.75000000  0.04514110  1.0
  Ni  Ni237  1  0.50000000  0.08333333  0.04514110  1.0
  Ni  Ni238  1  0.50000000  0.41666667  0.04514110  1.0
  Ni  Ni239  1  0.50000000  0.75000000  0.04514110  1.0
  Ni  Ni240  1  0.83333333  0.08333333  0.04514110  1.0
  Ni  Ni241  1  0.83333333  0.41666667  0.04514110  1.0
  Ni  Ni242  1  0.83333333  0.75000000  0.04514110  1.0
  Ni  Ni243  1  0.16666667  0.25000000  0.14514110  1.0
  Ni  Ni244  1  0.16666667  0.58333333  0.14514110  1.0
  Ni  Ni245  1  0.16666667  0.91666667  0.14514110  1.0
  Ni  Ni246  1  0.50000000  0.25000000  0.14514110  1.0
  Ni  Ni247  1  0.50000000  0.58333333  0.14514110  1.0
  Ni  Ni248  1  0.50000000  0.91666667  0.14514110  1.0
  Ni  Ni249  1  0.83333333  0.25000000  0.14514110  1.0
  Ni  Ni250  1  0.83333333  0.58333333  0.14514110  1.0
  Ni  Ni251  1  0.83333333  0.91666667  0.14514110  1.0
  Ti  Ti252  1  0.29712067  0.12622983  0.21829400  1.0
  Ti  Ti253  1  0.29712067  0.45956317  0.21829400  1.0
  Ti  Ti254  1  0.29712067  0.79289650  0.21829400  1.0
  Ti  Ti255  1  0.63045400  0.12622983  0.21829400  1.0
  Ti  Ti256  1  0.63045400  0.45956317  0.21829400  1.0
  Ti  Ti257  1  0.63045400  0.79289650  0.21829400  1.0
  Ti  Ti258  1  0.96378733  0.12622983  0.21829400  1.0
  Ti  Ti259  1  0.96378733  0.45956317  0.21829400  1.0
  Ti  Ti260  1  0.96378733  0.79289650  0.21829400  1.0
  Ti  Ti261  1  0.29712067  0.29289650  0.31829400  1.0
  Ti  Ti262  1  0.29712067  0.62622983  0.31829400  1.0
  Ti  Ti263  1  0.29712067  0.95956317  0.31829400  1.0
  Ti  Ti264  1  0.63045400  0.29289650  0.31829400  1.0
  Ti  Ti265  1  0.63045400  0.62622983  0.31829400  1.0
  Ti  Ti266  1  0.63045400  0.95956317  0.31829400  1.0
  Ti  Ti267  1  0.96378733  0.29289650  0.31829400  1.0
  Ti  Ti268  1  0.96378733  0.62622983  0.31829400  1.0
  Ti  Ti269  1  0.96378733  0.95956317  0.31829400  1.0
  Ti  Ti270  1  0.16851533  0.01810633  0.23280150  1.0
  Ti  Ti271  1  0.16851533  0.35143967  0.23280150  1.0
  Ti  Ti272  1  0.16851533  0.68477300  0.23280150  1.0
  Ti  Ti273  1  0.50184867  0.01810633  0.23280150  1.0
  Ti  Ti274  1  0.50184867  0.35143967  0.23280150  1.0
  Ti  Ti275  1  0.50184867  0.68477300  0.23280150  1.0
  Ti  Ti276  1  0.83518200  0.01810633  0.23280150  1.0
  Ti  Ti277  1  0.83518200  0.35143967  0.23280150  1.0
  Ti  Ti278  1  0.83518200  0.68477300  0.23280150  1.0
  Ti  Ti279  1  0.16851533  0.18477300  0.33280150  1.0
  Ti  Ti280  1  0.16851533  0.51810633  0.33280150  1.0
  Ti  Ti281  1  0.16851533  0.85143967  0.33280150  1.0
  Ti  Ti282  1  0.50184867  0.18477300  0.33280150  1.0
  Ti  Ti283  1  0.50184867  0.51810633  0.33280150  1.0
  Ti  Ti284  1  0.50184867  0.85143967  0.33280150  1.0
  Ti  Ti285  1  0.83518200  0.18477300  0.33280150  1.0
  Ti  Ti286  1  0.83518200  0.51810633  0.33280150  1.0
  Ti  Ti287  1  0.83518200  0.85143967  0.33280150  1.0
  Ti  Ti288  1  0.03621267  0.04043683  0.27198820  1.0
  Ti  Ti289  1  0.03621267  0.37377017  0.27198820  1.0
  Ti  Ti290  1  0.03621267  0.70710350  0.27198820  1.0
  Ti  Ti291  1  0.36954600  0.04043683  0.27198820  1.0
  Ti  Ti292  1  0.36954600  0.37377017  0.27198820  1.0
  Ti  Ti293  1  0.36954600  0.70710350  0.27198820  1.0
  Ti  Ti294  1  0.70287933  0.04043683  0.27198820  1.0
  Ti  Ti295  1  0.70287933  0.37377017  0.27198820  1.0
  Ti  Ti296  1  0.70287933  0.70710350  0.27198820  1.0
  Ti  Ti297  1  0.03621267  0.20710350  0.37198820  1.0
  Ti  Ti298  1  0.03621267  0.54043683  0.37198820  1.0
  Ti  Ti299  1  0.03621267  0.87377017  0.37198820  1.0
  Ti  Ti300  1  0.36954600  0.20710350  0.37198820  1.0
  Ti  Ti301  1  0.36954600  0.54043683  0.37198820  1.0
  Ti  Ti302  1  0.36954600  0.87377017  0.37198820  1.0
  Ti  Ti303  1  0.70287933  0.20710350  0.37198820  1.0
  Ti  Ti304  1  0.70287933  0.54043683  0.37198820  1.0
  Ti  Ti305  1  0.70287933  0.87377017  0.37198820  1.0
  Ti  Ti306  1  0.08087367  0.08425767  0.36631410  1.0
  Ti  Ti307  1  0.08087367  0.41759100  0.36631410  1.0
  Ti  Ti308  1  0.08087367  0.75092433  0.36631410  1.0
  Ti  Ti309  1  0.41420700  0.08425767  0.36631410  1.0
  Ti  Ti310  1  0.41420700  0.41759100  0.36631410  1.0
  Ti  Ti311  1  0.41420700  0.75092433  0.36631410  1.0
  Ti  Ti312  1  0.74754033  0.08425767  0.36631410  1.0
  Ti  Ti313  1  0.74754033  0.41759100  0.36631410  1.0
  Ti  Ti314  1  0.74754033  0.75092433  0.36631410  1.0
  Ti  Ti315  1  0.08087367  0.25092433  0.26631410  1.0
  Ti  Ti316  1  0.08087367  0.58425767  0.26631410  1.0
  Ti  Ti317  1  0.08087367  0.91759100  0.26631410  1.0
  Ti  Ti318  1  0.41420700  0.25092433  0.26631410  1.0
  Ti  Ti319  1  0.41420700  0.58425767  0.26631410  1.0
  Ti  Ti320  1  0.41420700  0.91759100  0.26631410  1.0
  Ti  Ti321  1  0.74754033  0.25092433  0.26631410  1.0
  Ti  Ti322  1  0.74754033  0.58425767  0.26631410  1.0
  Ti  Ti323  1  0.74754033  0.91759100  0.26631410  1.0
  Ti  Ti324  1  0.25245967  0.08240900  0.32396810  1.0
  Ti  Ti325  1  0.25245967  0.41574233  0.32396810  1.0
  Ti  Ti326  1  0.25245967  0.74907567  0.32396810  1.0
  Ti  Ti327  1  0.58579300  0.08240900  0.32396810  1.0
  Ti  Ti328  1  0.58579300  0.41574233  0.32396810  1.0
  Ti  Ti329  1  0.58579300  0.74907567  0.32396810  1.0
  Ti  Ti330  1  0.91912633  0.08240900  0.32396810  1.0
  Ti  Ti331  1  0.91912633  0.41574233  0.32396810  1.0
  Ti  Ti332  1  0.91912633  0.74907567  0.32396810  1.0
  Ti  Ti333  1  0.25245967  0.24907567  0.22396810  1.0
  Ti  Ti334  1  0.25245967  0.58240900  0.22396810  1.0
  Ti  Ti335  1  0.25245967  0.91574233  0.22396810  1.0
  Ti  Ti336  1  0.58579300  0.24907567  0.22396810  1.0
  Ti  Ti337  1  0.58579300  0.58240900  0.22396810  1.0
  Ti  Ti338  1  0.58579300  0.91574233  0.22396810  1.0
  Ti  Ti339  1  0.91912633  0.24907567  0.22396810  1.0
  Ti  Ti340  1  0.91912633  0.58240900  0.22396810  1.0
  Ti  Ti341  1  0.91912633  0.91574233  0.22396810  1.0
  Ti  Ti342  1  0.16481800  0.14856033  0.25748070  1.0
  Ti  Ti343  1  0.16481800  0.48189367  0.25748070  1.0
  Ti  Ti344  1  0.16481800  0.81522700  0.25748070  1.0
  Ti  Ti345  1  0.49815133  0.14856033  0.25748070  1.0
  Ti  Ti346  1  0.49815133  0.48189367  0.25748070  1.0
  Ti  Ti347  1  0.49815133  0.81522700  0.25748070  1.0
  Ti  Ti348  1  0.83148467  0.14856033  0.25748070  1.0
  Ti  Ti349  1  0.83148467  0.48189367  0.25748070  1.0
  Ti  Ti350  1  0.83148467  0.81522700  0.25748070  1.0
  Ti  Ti351  1  0.16481800  0.31522700  0.35748070  1.0
  Ti  Ti352  1  0.16481800  0.64856033  0.35748070  1.0
  Ti  Ti353  1  0.16481800  0.98189367  0.35748070  1.0
  Ti  Ti354  1  0.49815133  0.31522700  0.35748070  1.0
  Ti  Ti355  1  0.49815133  0.64856033  0.35748070  1.0
  Ti  Ti356  1  0.49815133  0.98189367  0.35748070  1.0
  Ti  Ti357  1  0.83148467  0.31522700  0.35748070  1.0
  Ti  Ti358  1  0.83148467  0.64856033  0.35748070  1.0
  Ti  Ti359  1  0.83148467  0.98189367  0.35748070  1.0
  Ni  Ni360  1  0.24789100  0.01004500  0.30601890  1.0
  Ni  Ni361  1  0.24789100  0.34337833  0.30601890  1.0
  Ni  Ni362  1  0.24789100  0.67671167  0.30601890  1.0
  Ni  Ni363  1  0.58122433  0.01004500  0.30601890  1.0
  Ni  Ni364  1  0.58122433  0.34337833  0.30601890  1.0
  Ni  Ni365  1  0.58122433  0.67671167  0.30601890  1.0
  Ni  Ni366  1  0.91455767  0.01004500  0.30601890  1.0
  Ni  Ni367  1  0.91455767  0.34337833  0.30601890  1.0
  Ni  Ni368  1  0.91455767  0.67671167  0.30601890  1.0
  Ni  Ni369  1  0.24789100  0.17671167  0.20601890  1.0
  Ni  Ni370  1  0.24789100  0.51004500  0.20601890  1.0
  Ni  Ni371  1  0.24789100  0.84337833  0.20601890  1.0
  Ni  Ni372  1  0.58122433  0.17671167  0.20601890  1.0
  Ni  Ni373  1  0.58122433  0.51004500  0.20601890  1.0
  Ni  Ni374  1  0.58122433  0.84337833  0.20601890  1.0
  Ni  Ni375  1  0.91455767  0.17671167  0.20601890  1.0
  Ni  Ni376  1  0.91455767  0.51004500  0.20601890  1.0
  Ni  Ni377  1  0.91455767  0.84337833  0.20601890  1.0
  Ni  Ni378  1  0.08544233  0.15662167  0.38426330  1.0
  Ni  Ni379  1  0.08544233  0.48995500  0.38426330  1.0
  Ni  Ni380  1  0.08544233  0.82328833  0.38426330  1.0
  Ni  Ni381  1  0.41877567  0.15662167  0.38426330  1.0
  Ni  Ni382  1  0.41877567  0.48995500  0.38426330  1.0
  Ni  Ni383  1  0.41877567  0.82328833  0.38426330  1.0
  Ni  Ni384  1  0.75210900  0.15662167  0.38426330  1.0
  Ni  Ni385  1  0.75210900  0.48995500  0.38426330  1.0
  Ni  Ni386  1  0.75210900  0.82328833  0.38426330  1.0
  Ni  Ni387  1  0.08544233  0.32328833  0.28426330  1.0
  Ni  Ni388  1  0.08544233  0.65662167  0.28426330  1.0
  Ni  Ni389  1  0.08544233  0.98995500  0.28426330  1.0
  Ni  Ni390  1  0.41877567  0.32328833  0.28426330  1.0
  Ni  Ni391  1  0.41877567  0.65662167  0.28426330  1.0
  Ni  Ni392  1  0.41877567  0.98995500  0.28426330  1.0
  Ni  Ni393  1  0.75210900  0.32328833  0.28426330  1.0
  Ni  Ni394  1  0.75210900  0.65662167  0.28426330  1.0
  Ni  Ni395  1  0.75210900  0.98995500  0.28426330  1.0
  Ni  Ni396  1  0.02009000  0.09742067  0.28542330  1.0
  Ni  Ni397  1  0.02009000  0.43075400  0.28542330  1.0
  Ni  Ni398  1  0.02009000  0.76408733  0.28542330  1.0
  Ni  Ni399  1  0.35342333  0.09742067  0.28542330  1.0
  Ni  Ni400  1  0.35342333  0.43075400  0.28542330  1.0
  Ni  Ni401  1  0.35342333  0.76408733  0.28542330  1.0
  Ni  Ni402  1  0.68675667  0.09742067  0.28542330  1.0
  Ni  Ni403  1  0.68675667  0.43075400  0.28542330  1.0
  Ni  Ni404  1  0.68675667  0.76408733  0.28542330  1.0
  Ni  Ni405  1  0.02009000  0.26408733  0.38542330  1.0
  Ni  Ni406  1  0.02009000  0.59742067  0.38542330  1.0
  Ni  Ni407  1  0.02009000  0.93075400  0.38542330  1.0
  Ni  Ni408  1  0.35342333  0.26408733  0.38542330  1.0
  Ni  Ni409  1  0.35342333  0.59742067  0.38542330  1.0
  Ni  Ni410  1  0.35342333  0.93075400  0.38542330  1.0
  Ni  Ni411  1  0.68675667  0.26408733  0.38542330  1.0
  Ni  Ni412  1  0.68675667  0.59742067  0.38542330  1.0
  Ni  Ni413  1  0.68675667  0.93075400  0.38542330  1.0
  Ni  Ni414  1  0.19484133  0.12394550  0.33282780  1.0
  Ni  Ni415  1  0.19484133  0.45727883  0.33282780  1.0
  Ni  Ni416  1  0.19484133  0.79061217  0.33282780  1.0
  Ni  Ni417  1  0.52817467  0.12394550  0.33282780  1.0
  Ni  Ni418  1  0.52817467  0.45727883  0.33282780  1.0
  Ni  Ni419  1  0.52817467  0.79061217  0.33282780  1.0
  Ni  Ni420  1  0.86150800  0.12394550  0.33282780  1.0
  Ni  Ni421  1  0.86150800  0.45727883  0.33282780  1.0
  Ni  Ni422  1  0.86150800  0.79061217  0.33282780  1.0
  Ni  Ni423  1  0.19484133  0.29061217  0.23282780  1.0
  Ni  Ni424  1  0.19484133  0.62394550  0.23282780  1.0
  Ni  Ni425  1  0.19484133  0.95727883  0.23282780  1.0
  Ni  Ni426  1  0.52817467  0.29061217  0.23282780  1.0
  Ni  Ni427  1  0.52817467  0.62394550  0.23282780  1.0
  Ni  Ni428  1  0.52817467  0.95727883  0.23282780  1.0
  Ni  Ni429  1  0.86150800  0.29061217  0.23282780  1.0
  Ni  Ni430  1  0.86150800  0.62394550  0.23282780  1.0
  Ni  Ni431  1  0.86150800  0.95727883  0.23282780  1.0
  Ni  Ni432  1  0.31324333  0.06924600  0.20485890  1.0
  Ni  Ni433  1  0.31324333  0.40257933  0.20485890  1.0
  Ni  Ni434  1  0.31324333  0.73591267  0.20485890  1.0
  Ni  Ni435  1  0.64657667  0.06924600  0.20485890  1.0
  Ni  Ni436  1  0.64657667  0.40257933  0.20485890  1.0
  Ni  Ni437  1  0.64657667  0.73591267  0.20485890  1.0
  Ni  Ni438  1  0.97991000  0.06924600  0.20485890  1.0
  Ni  Ni439  1  0.97991000  0.40257933  0.20485890  1.0
  Ni  Ni440  1  0.97991000  0.73591267  0.20485890  1.0
  Ni  Ni441  1  0.31324333  0.23591267  0.30485890  1.0
  Ni  Ni442  1  0.31324333  0.56924600  0.30485890  1.0
  Ni  Ni443  1  0.31324333  0.90257933  0.30485890  1.0
  Ni  Ni444  1  0.64657667  0.23591267  0.30485890  1.0
  Ni  Ni445  1  0.64657667  0.56924600  0.30485890  1.0
  Ni  Ni446  1  0.64657667  0.90257933  0.30485890  1.0
  Ni  Ni447  1  0.97991000  0.23591267  0.30485890  1.0
  Ni  Ni448  1  0.97991000  0.56924600  0.30485890  1.0
  Ni  Ni449  1  0.97991000  0.90257933  0.30485890  1.0
  Ni  Ni450  1  0.00000000  0.16666667  0.29514110  1.0
  Ni  Ni451  1  0.00000000  0.50000000  0.29514110  1.0
  Ni  Ni452  1  0.00000000  0.83333333  0.29514110  1.0
  Ni  Ni453  1  0.33333333  0.16666667  0.29514110  1.0
  Ni  Ni454  1  0.33333333  0.50000000  0.29514110  1.0
  Ni  Ni455  1  0.33333333  0.83333333  0.29514110  1.0
  Ni  Ni456  1  0.66666667  0.16666667  0.29514110  1.0
  Ni  Ni457  1  0.66666667  0.50000000  0.29514110  1.0
  Ni  Ni458  1  0.66666667  0.83333333  0.29514110  1.0
  Ni  Ni459  1  0.00000000  0.00000000  0.39514110  1.0
  Ni  Ni460  1  0.00000000  0.33333333  0.39514110  1.0
  Ni  Ni461  1  0.00000000  0.66666667  0.39514110  1.0
  Ni  Ni462  1  0.33333333  0.00000000  0.39514110  1.0
  Ni  Ni463  1  0.33333333  0.33333333  0.39514110  1.0
  Ni  Ni464  1  0.33333333  0.66666667  0.39514110  1.0
  Ni  Ni465  1  0.66666667  0.00000000  0.39514110  1.0
  Ni  Ni466  1  0.66666667  0.33333333  0.39514110  1.0
  Ni  Ni467  1  0.66666667  0.66666667  0.39514110  1.0
  Ni  Ni468  1  0.13849200  0.04272117  0.35745440  1.0
  Ni  Ni469  1  0.13849200  0.37605450  0.35745440  1.0
  Ni  Ni470  1  0.13849200  0.70938783  0.35745440  1.0
  Ni  Ni471  1  0.47182533  0.04272117  0.35745440  1.0
  Ni  Ni472  1  0.47182533  0.37605450  0.35745440  1.0
  Ni  Ni473  1  0.47182533  0.70938783  0.35745440  1.0
  Ni  Ni474  1  0.80515867  0.04272117  0.35745440  1.0
  Ni  Ni475  1  0.80515867  0.37605450  0.35745440  1.0
  Ni  Ni476  1  0.80515867  0.70938783  0.35745440  1.0
  Ni  Ni477  1  0.13849200  0.20938783  0.25745440  1.0
  Ni  Ni478  1  0.13849200  0.54272117  0.25745440  1.0
  Ni  Ni479  1  0.13849200  0.87605450  0.25745440  1.0
  Ni  Ni480  1  0.47182533  0.20938783  0.25745440  1.0
  Ni  Ni481  1  0.47182533  0.54272117  0.25745440  1.0
  Ni  Ni482  1  0.47182533  0.87605450  0.25745440  1.0
  Ni  Ni483  1  0.80515867  0.20938783  0.25745440  1.0
  Ni  Ni484  1  0.80515867  0.54272117  0.25745440  1.0
  Ni  Ni485  1  0.80515867  0.87605450  0.25745440  1.0
  Ni  Ni486  1  0.16666667  0.08333333  0.24514110  1.0
  Ni  Ni487  1  0.16666667  0.41666667  0.24514110  1.0
  Ni  Ni488  1  0.16666667  0.75000000  0.24514110  1.0
  Ni  Ni489  1  0.50000000  0.08333333  0.24514110  1.0
  Ni  Ni490  1  0.50000000  0.41666667  0.24514110  1.0
  Ni  Ni491  1  0.50000000  0.75000000  0.24514110  1.0
  Ni  Ni492  1  0.83333333  0.08333333  0.24514110  1.0
  Ni  Ni493  1  0.83333333  0.41666667  0.24514110  1.0
  Ni  Ni494  1  0.83333333  0.75000000  0.24514110  1.0
  Ni  Ni495  1  0.16666667  0.25000000  0.34514110  1.0
  Ni  Ni496  1  0.16666667  0.58333333  0.34514110  1.0
  Ni  Ni497  1  0.16666667  0.91666667  0.34514110  1.0
  Ni  Ni498  1  0.50000000  0.25000000  0.34514110  1.0
  Ni  Ni499  1  0.50000000  0.58333333  0.34514110  1.0
  Ni  Ni500  1  0.50000000  0.91666667  0.34514110  1.0
  Ni  Ni501  1  0.83333333  0.25000000  0.34514110  1.0
  Ni  Ni502  1  0.83333333  0.58333333  0.34514110  1.0
  Ni  Ni503  1  0.83333333  0.91666667  0.34514110  1.0
