# generated using pymatgen
data_TiNi3
_symmetry_space_group_name_H-M   'P 1'
_cell_length_a   15.28750110
_cell_length_b   15.28750110
_cell_length_c   33.24624400
_cell_angle_alpha   90.00000000
_cell_angle_beta   90.00000000
_cell_angle_gamma   120.00000000
_symmetry_Int_Tables_number   1
_chemical_formula_structural   TiNi3
_chemical_formula_sum   'Ti72 Ni216'
_cell_volume   6728.93328119
_cell_formula_units_Z   72
loop_
 _symmetry_equiv_pos_site_id
 _symmetry_equiv_pos_as_xyz
  1  'x, y, z'
loop_
 _atom_site_type_symbol
 _atom_site_label
 _atom_site_symmetry_multiplicity
 _atom_site_fract_x
 _atom_site_fract_y
 _atom_site_fract_z
 _atom_site_occupancy
  Ti  Ti0  1  0.11111111  0.22222222  0.03125000  1.0
  Ti  Ti1  1  0.11111111  0.55555556  0.03125000  1.0
  Ti  Ti2  1  0.11111111  0.88888889  0.03125000  1.0
  Ti  Ti3  1  0.44444444  0.22222222  0.03125000  1.0
  Ti  Ti4  1  0.44444444  0.55555556  0.03125000  1.0
  Ti  Ti5  1  0.44444444  0.88888889  0.03125000  1.0
  Ti  Ti6  1  0.77777778  0.22222222  0.03125000  1.0
  Ti  Ti7  1  0.77777778  0.55555556  0.03125000  1.0
  Ti  Ti8  1  0.77777778  0.88888889  0.03125000  1.0
  Ti  Ti9  1  0.22222222  0.11111111  0.15625000  1.0
  Ti  Ti10  1  0.22222222  0.44444444  0.15625000  1.0
  Ti  Ti11  1  0.22222222  0.77777778  0.15625000  1.0
  Ti  Ti12  1  0.55555556  0.11111111  0.15625000  1.0
  Ti  Ti13  1  0.55555556  0.44444444  0.15625000  1.0
  Ti  Ti14  1  0.55555556  0.77777778  0.15625000  1.0
  Ti  Ti15  1  0.88888889  0.11111111  0.15625000  1.0
  Ti  Ti16  1  0.88888889  0.44444444  0.15625000  1.0
  Ti  Ti17  1  0.88888889  0.77777778  0.15625000  1.0
  Ti  Ti18  1  0.00000000  0.00000000  0.21875000  1.0
  Ti  Ti19  1  0.00000000  0.33333333  0.21875000  1.0
  Ti  Ti20  1  0.00000000  0.66666667  0.21875000  1.0
  Ti  Ti21  1  0.33333333  0.00000000  0.21875000  1.0
  Ti  Ti22  1  0.33333333  0.33333333  0.21875000  1.0
  Ti  Ti23  1  0.33333333  0.66666667  0.21875000  1.0
  Ti  Ti24  1  0.66666667  0.00000000  0.21875000  1.0
  Ti  Ti25  1  0.66666667  0.33333333  0.21875000  1.0
  Ti  Ti26  1  0.66666667  0.66666667  0.21875000  1.0
  Ti  Ti27  1  0.00000000  0.00000000  0.09375000  1.0
  Ti  Ti28  1  0.00000000  0.33333333  0.09375000  1.0
  Ti  Ti29  1  0.00000000  0.66666667  0.09375000  1.0
  Ti  Ti30  1  0.33333333  0.00000000  0.09375000  1.0
  Ti  Ti31  1  0.33333333  0.33333333  0.09375000  1.0
  Ti  Ti32  1  0.33333333  0.66666667  0.09375000  1.0
  Ti  Ti33  1  0.66666667  0.00000000  0.09375000  1.0
  Ti  Ti34  1  0.66666667  0.33333333  0.09375000  1.0
  Ti  Ti35  1  0.66666667  0.66666667  0.09375000  1.0
  Ni  Ni36  1  0.16666667  0.00000000  0.09375000  1.0
  Ni  Ni37  1  0.16666667  0.33333333  0.09375000  1.0
  Ni  Ni38  1  0.16666667  0.66666667  0.09375000  1.0
  Ni  Ni39  1  0.50000000  0.00000000  0.09375000  1.0
  Ni  Ni40  1  0.50000000  0.33333333  0.09375000  1.0
  Ni  Ni41  1  0.50000000  0.66666667  0.09375000  1.0
  Ni  Ni42  1  0.83333333  0.00000000  0.09375000  1.0
  Ni  Ni43  1  0.83333333  0.33333333  0.09375000  1.0
  Ni  Ni44  1  0.83333333  0.66666667  0.09375000  1.0
  Ni  Ni45  1  0.00000000  0.16666667  0.21875000  1.0
  Ni  Ni46  1  0.00000000  0.50000000  0.21875000  1.0
  Ni  Ni47  1  0.00000000  0.83333333  0.21875000  1.0
  Ni  Ni48  1  0.33333333  0.16666667  0.21875000  1.0
  Ni  Ni49  1  0.33333333  0.50000000  0.21875000  1.0
  Ni  Ni50  1  0.33333333  0.83333333  0.21875000  1.0
  Ni  Ni51  1  0.66666667  0.16666667  0.21875000  1.0
  Ni  Ni52  1  0.66666667  0.50000000  0.21875000  1.0
  Ni  Ni53  1  0.66666667  0.83333333  0.21875000  1.0
  Ni  Ni54  1  0.21886333  0.27609833  0.15625000  1.0
  Ni  Ni55  1  0.21886333  0.60943167  0.15625000  1.0
  Ni  Ni56  1  0.21886333  0.94276500  0.15625000  1.0
  Ni  Ni57  1  0.55219667  0.27609833  0.15625000  1.0
  Ni  Ni58  1  0.55219667  0.60943167  0.15625000  1.0
  Ni  Ni59  1  0.55219667  0.94276500  0.15625000  1.0
  Ni  Ni60  1  0.88553000  0.27609833  0.15625000  1.0
  Ni  Ni61  1  0.88553000  0.60943167  0.15625000  1.0
  Ni  Ni62  1  0.88553000  0.94276500  0.15625000  1.0
  Ni  Ni63  1  0.27609833  0.21886333  0.03125000  1.0
  Ni  Ni64  1  0.27609833  0.55219667  0.03125000  1.0
  Ni  Ni65  1  0.27609833  0.88553000  0.03125000  1.0
  Ni  Ni66  1  0.60943167  0.21886333  0.03125000  1.0
  Ni  Ni67  1  0.60943167  0.55219667  0.03125000  1.0
  Ni  Ni68  1  0.60943167  0.88553000  0.03125000  1.0
  Ni  Ni69  1  0.94276500  0.21886333  0.03125000  1.0
  Ni  Ni70  1  0.94276500  0.55219667  0.03125000  1.0
  Ni  Ni71  1  0.94276500  0.88553000  0.03125000  1.0
  Ni  Ni72  1  0.27609833  0.05723500  0.03125000  1.0
  Ni  Ni73  1  0.27609833  0.39056833  0.03125000  1.0
  Ni  Ni74  1  0.27609833  0.72390167  0.03125000  1.0
  Ni  Ni75  1  0.60943167  0.05723500  0.03125000  1.0
  Ni  Ni76  1  0.60943167  0.39056833  0.03125000  1.0
  Ni  Ni77  1  0.60943167  0.72390167  0.03125000  1.0
  Ni  Ni78  1  0.94276500  0.05723500  0.03125000  1.0
  Ni  Ni79  1  0.94276500  0.39056833  0.03125000  1.0
  Ni  Ni80  1  0.94276500  0.72390167  0.03125000  1.0
  Ni  Ni81  1  0.05723500  0.27609833  0.15625000  1.0
  Ni  Ni82  1  0.05723500  0.60943167  0.15625000  1.0
  Ni  Ni83  1  0.05723500  0.94276500  0.15625000  1.0
  Ni  Ni84  1  0.39056833  0.27609833  0.15625000  1.0
  Ni  Ni85  1  0.39056833  0.60943167  0.15625000  1.0
  Ni  Ni86  1  0.39056833  0.94276500  0.15625000  1.0
  Ni  Ni87  1  0.72390167  0.27609833  0.15625000  1.0
  Ni  Ni88  1  0.72390167  0.60943167  0.15625000  1.0
  Ni  Ni89  1  0.72390167  0.94276500  0.15625000  1.0
  Ni  Ni90  1  0.05723500  0.11447000  0.15625000  1.0
  Ni  Ni91  1  0.05723500  0.44780333  0.15625000  1.0
  Ni  Ni92  1  0.05723500  0.78113667  0.15625000  1.0
  Ni  Ni93  1  0.39056833  0.11447000  0.15625000  1.0
  Ni  Ni94  1  0.39056833  0.44780333  0.15625000  1.0
  Ni  Ni95  1  0.39056833  0.78113667  0.15625000  1.0
  Ni  Ni96  1  0.72390167  0.11447000  0.15625000  1.0
  Ni  Ni97  1  0.72390167  0.44780333  0.15625000  1.0
  Ni  Ni98  1  0.72390167  0.78113667  0.15625000  1.0
  Ni  Ni99  1  0.11447000  0.05723500  0.03125000  1.0
  Ni  Ni100  1  0.11447000  0.39056833  0.03125000  1.0
  Ni  Ni101  1  0.11447000  0.72390167  0.03125000  1.0
  Ni  Ni102  1  0.44780333  0.05723500  0.03125000  1.0
  Ni  Ni103  1  0.44780333  0.39056833  0.03125000  1.0
  Ni  Ni104  1  0.44780333  0.72390167  0.03125000  1.0
  Ni  Ni105  1  0.78113667  0.05723500  0.03125000  1.0
  Ni  Ni106  1  0.78113667  0.39056833  0.03125000  1.0
  Ni  Ni107  1  0.78113667  0.72390167  0.03125000  1.0
  Ni  Ni108  1  0.16666667  0.16666667  0.09375000  1.0
  Ni  Ni109  1  0.16666667  0.50000000  0.09375000  1.0
  Ni  Ni110  1  0.16666667  0.83333333  0.09375000  1.0
  Ni  Ni111  1  0.50000000  0.16666667  0.09375000  1.0
  Ni  Ni112  1  0.50000000  0.50000000  0.09375000  1.0
  Ni  Ni113  1  0.50000000  0.83333333  0.09375000  1.0
  Ni  Ni114  1  0.83333333  0.16666667  0.09375000  1.0
  Ni  Ni115  1  0.83333333  0.50000000  0.09375000  1.0
  Ni  Ni116  1  0.83333333  0.83333333  0.09375000  1.0
  Ni  Ni117  1  0.16666667  0.16666667  0.21875000  1.0
  Ni  Ni118  1  0.16666667  0.50000000  0.21875000  1.0
  Ni  Ni119  1  0.16666667  0.83333333  0.21875000  1.0
  Ni  Ni120  1  0.50000000  0.16666667  0.21875000  1.0
  Ni  Ni121  1  0.50000000  0.50000000  0.21875000  1.0
  Ni  Ni122  1  0.50000000  0.83333333  0.21875000  1.0
  Ni  Ni123  1  0.83333333  0.16666667  0.21875000  1.0
  Ni  Ni124  1  0.83333333  0.50000000  0.21875000  1.0
  Ni  Ni125  1  0.83333333  0.83333333  0.21875000  1.0
  Ni  Ni126  1  0.16666667  0.00000000  0.21875000  1.0
  Ni  Ni127  1  0.16666667  0.33333333  0.21875000  1.0
  Ni  Ni128  1  0.16666667  0.66666667  0.21875000  1.0
  Ni  Ni129  1  0.50000000  0.00000000  0.21875000  1.0
  Ni  Ni130  1  0.50000000  0.33333333  0.21875000  1.0
  Ni  Ni131  1  0.50000000  0.66666667  0.21875000  1.0
  Ni  Ni132  1  0.83333333  0.00000000  0.21875000  1.0
  Ni  Ni133  1  0.83333333  0.33333333  0.21875000  1.0
  Ni  Ni134  1  0.83333333  0.66666667  0.21875000  1.0
  Ni  Ni135  1  0.00000000  0.16666667  0.09375000  1.0
  Ni  Ni136  1  0.00000000  0.50000000  0.09375000  1.0
  Ni  Ni137  1  0.00000000  0.83333333  0.09375000  1.0
  Ni  Ni138  1  0.33333333  0.16666667  0.09375000  1.0
  Ni  Ni139  1  0.33333333  0.50000000  0.09375000  1.0
  Ni  Ni140  1  0.33333333  0.83333333  0.09375000  1.0
  Ni  Ni141  1  0.66666667  0.16666667  0.09375000  1.0
  Ni  Ni142  1  0.66666667  0.50000000  0.09375000  1.0
  Ni  Ni143  1  0.66666667  0.83333333  0.09375000  1.0
  Ti  Ti144  1  0.11111111  0.22222222  0.28125000  1.0
  Ti  Ti145  1  0.11111111  0.55555556  0.28125000  1.0
  Ti  Ti146  1  0.11111111  0.88888889  0.28125000  1.0
  Ti  Ti147  1  0.44444444  0.22222222  0.28125000  1.0
  Ti  Ti148  1  0.44444444  0.55555556  0.28125000  1.0
  Ti  Ti149  1  0.44444444  0.88888889  0.28125000  1.0
  Ti  Ti150  1  0.77777778  0.22222222  0.28125000  1.0
  Ti  Ti151  1  0.77777778  0.55555556  0.28125000  1.0
  Ti  Ti152  1  0.77777778  0.88888889  0.28125000  1.0
  Ti  Ti153  1  0.22222222  0.11111111  0.40625000  1.0
  Ti  Ti154  1  0.22222222  0.44444444  0.40625000  1.0
  Ti  Ti155  1  0.22222222  0.77777778  0.40625000  1.0
  Ti  Ti156  1  0.55555556  0.11111111  0.40625000  1.0
  Ti  Ti157  1  0.55555556  0.44444444  0.40625000  1.0
  Ti  Ti158  1  0.55555556  0.77777778  0.40625000  1.0
  Ti  Ti159  1  0.88888889  0.11111111  0.40625000  1.0
  Ti  Ti160  1  0.88888889  0.44444444  0.40625000  1.0
  Ti  Ti161  1  0.88888889  0.77777778  0.40625000  1.0
  Ti  Ti162  1  0.00000000  0.00000000  0.46875000  1.0
  Ti  Ti163  1  0.00000000  0.33333333  0.46875000  1.0
  Ti  Ti164  1  0.00000000  0.66666667  0.46875000  1.0
  Ti  Ti165  1  0.33333333  0.00000000  0.46875000  1.0
  Ti  Ti166  1  0.33333333  0.33333333  0.46875000  1.0
  Ti  Ti167  1  0.33333333  0.66666667  0.46875000  1.0
  Ti  Ti168  1  0.66666667  0.00000000  0.46875000  1.0
  Ti  Ti169  1  0.66666667  0.33333333  0.46875000  1.0
  Ti  Ti170  1  0.66666667  0.66666667  0.46875000  1.0
  Ti  Ti171  1  0.00000000  0.00000000  0.34375000  1.0
  Ti  Ti172  1  0.00000000  0.33333333  0.34375000  1.0
  Ti  Ti173  1  0.00000000  0.66666667  0.34375000  1.0
  Ti  Ti174  1  0.33333333  0.00000000  0.34375000  1.0
  Ti  Ti175  1  0.33333333  0.33333333  0.34375000  1.0
  Ti  Ti176  1  0.33333333  0.66666667  0.34375000  1.0
  Ti  Ti177  1  0.66666667  0.00000000  0.34375000  1.0
  Ti  Ti178  1  0.66666667  0.33333333  0.34375000  1.0
  Ti  Ti179  1  0.66666667  0.66666667  0.34375000  1.0
  Ni  Ni180  1  0.16666667  0.00000000  0.34375000  1.0
  Ni  Ni181  1  0.16666667  0.33333333  0.34375000  1.0
  Ni  Ni182  1  0.16666667  0.66666667  0.34375000  1.0
  Ni  Ni183  1  0.50000000  0.00000000  0.34375000  1.0
  Ni  Ni184  1  0.50000000  0.33333333  0.34375000  1.0
  Ni  Ni185  1  0.50000000  0.66666667  0.34375000  1.0
  Ni  Ni186  1  0.83333333  0.00000000  0.34375000  1.0
  Ni  Ni187  1  0.83333333  0.33333333  0.34375000  1.0
  Ni  Ni188  1  0.83333333  0.66666667  0.34375000  1.0
  Ni  Ni189  1  0.00000000  0.16666667  0.46875000  1.0
  Ni  Ni190  1  0.00000000  0.50000000  0.46875000  1.0
  Ni  Ni191  1  0.00000000  0.83333333  0.46875000  1.0
  Ni  Ni192  1  0.33333333  0.16666667  0.46875000  1.0
  Ni  Ni193  1  0.33333333  0.50000000  0.46875000  1.0
  Ni  Ni194  1  0.33333333  0.83333333  0.46875000  1.0
  Ni  Ni195  1  0.66666667  0.16666667  0.46875000  1.0
  Ni  Ni196  1  0.66666667  0.50000000  0.46875000  1.0
  Ni  Ni197  1  0.66666667  0.83333333  0.46875000  1.0
  Ni  Ni198  1  0.21886333  0.27609833  0.40625000  1.0
  Ni  Ni199  1  0.21886333  0.60943167  0.40625000  1.0
  Ni  Ni200  1  0.21886333  0.94276500  0.40625000  1.0
  Ni  Ni201  1  0.55219667  0.27609833  0.40625000  1.0
  Ni  Ni202  1  0.55219667  0.60943167  0.40625000  1.0
  Ni  Ni203  1  0.55219667  0.94276500  0.40625000  1.0
  Ni  Ni204  1  0.88553000  0.27609833  0.40625000  1.0
  Ni  Ni205  1  0.88553000  0.60943167  0.40625000  1.0
  Ni  Ni206  1  0.88553000  0.94276500  0.40625000  1.0
  Ni  Ni207  1  0.27609833  0.21886333  0.28125000  1.0
  Ni  Ni208  1  0.27609833  0.55219667  0.28125000  1.0
  Ni  Ni209  1  0.27609833  0.88553000  0.28125000  1.0
  Ni  Ni210  1  0.60943167  0.21886333  0.28125000  1.0
  Ni  Ni211  1  0.60943167  0.55219667  0.28125000  1.0
  Ni  Ni212  1  0.60943167  0.88553000  0.28125000  1.0
  Ni  Ni213  1  0.94276500  0.21886333  0.28125000  1.0
  Ni  Ni214  1  0.94276500  0.55219667  0.28125000  1.0
  Ni  Ni215  1  0.94276500  0.88553000  0.28125000  1.0
  Ni  Ni216  1  0.27609833  0.05723500  0.28125000  1.0
  Ni  Ni217  1  0.27609833  0.39056833  0.28125000  1.0
  Ni  Ni218  1  0.27609833  0.72390167  0.28125000  1.0
  Ni  Ni219  1  0.60943167  0.05723500  0.28125000  1.0
  Ni  Ni220  1  0.60943167  0.39056833  0.28125000  1.0
  Ni  Ni221  1  0.60943167  0.72390167  0.28125000  1.0
  Ni  Ni222  1  0.94276500  0.05723500  0.28125000  1.0
  Ni  Ni223  1  0.94276500  0.39056833  0.28125000  1.0
  Ni  Ni224  1  0.94276500  0.72390167  0.28125000  1.0
  Ni  Ni225  1  0.05723500  0.27609833  0.40625000  1.0
  Ni  Ni226  1  0.05723500  0.60943167  0.40625000  1.0
  Ni  Ni227  1  0.05723500  0.94276500  0.40625000  1.0
  Ni  Ni228  1  0.39056833  0.27609833  0.40625000  1.0
  Ni  Ni229  1  0.39056833  0.60943167  0.40625000  1.0
  Ni  Ni230  1  0.39056833  0.94276500  0.40625000  1.0
  Ni  Ni231  1  0.72390167  0.27609833  0.40625000  1.0
  Ni  Ni232  1  0.72390167  0.60943167  0.40625000  1.0
  Ni  Ni233  1  0.72390167  0.94276500  0.40625000  1.0
  Ni  Ni234  1  0.05723500  0.11447000  0.40625000  1.0
  Ni  Ni235  1  0.05723500  0.44780333  0.40625000  1.0
  Ni  Ni236  1  0.05723500  0.78113667  0.40625000  1.0
  Ni  Ni237  1  0.39056833  0.11447000  0.40625000  1.0
  Ni  Ni238  1  0.39056833  0.44780333  0.40625000  1.0
  Ni  Ni239  1  0.39056833  0.78113667  0.40625000  1.0
  Ni  Ni240  1  0.72390167  0.11447000  0.40625000  1.0
  Ni  Ni241  1  0.72390167  0.44780333  0.40625000  1.0
  Ni  Ni242  1  0.72390167  0.78113667  0.40625000  1.0
  Ni  Ni243  1  0.11447000  0.05723500  0.28125000  1.0
  Ni  Ni244  1  0.11447000  0.39056833  0.28125000  1.0
  Ni  Ni245  1  0.11447000  0.72390167  0.28125000  1.0
  Ni  Ni246  1  0.44780333  0.05723500  0.28125000  1.0
  Ni  Ni247  1  0.44780333  0.39056833  0.28125000  1.0
  Ni  Ni248  1  0.44780333  0.72390167  0.28125000  1.0
  Ni  Ni249  1  0.78113667  0.05723500  0.28125000  1.0
  Ni  Ni250  1  0.78113667  0.39056833  0.28125000  1.0
  Ni  Ni251  1  0.78113667  0.72390167  0.28125000  1.0
  Ni  Ni252  1  0.16666667  0.16666667  0.34375000  1.0
  Ni  Ni253  1  0.16666667  0.50000000  0.34375000  1.0
  Ni  Ni254  1  0.16666667  0.83333333  0.34375000  1.0
  Ni  Ni255  1  0.50000000  0.16666667  0.34375000  1.0
  Ni  Ni256  1  0.50000000  0.50000000  0.34375000  1.0
  Ni  Ni257  1  0.50000000  0.83333333  0.34375000  1.0
  Ni  Ni258  1  0.83333333  0.16666667  0.34375000  1.0
  Ni  Ni259  1  0.83333333  0.50000000  0.34375000  1.0
  Ni  Ni260  1  0.83333333  0.83333333  0.34375000  1.0
  Ni  Ni261  1  0.16666667  0.16666667  0.46875000  1.0
  Ni  Ni262  1  0.16666667  0.50000000  0.46875000  1.0
  Ni  Ni263  1  0.16666667  0.83333333  0.46875000  1.0
  Ni  Ni264  1  0.50000000  0.16666667  0.46875000  1.0
  Ni  Ni265  1  0.50000000  0.50000000  0.46875000  1.0
  Ni  Ni266  1  0.50000000  0.83333333  0.46875000  1.0
  Ni  Ni267  1  0.83333333  0.16666667  0.46875000  1.0
  Ni  Ni268  1  0.83333333  0.50000000  0.46875000  1.0
  Ni  Ni269  1  0.83333333  0.83333333  0.46875000  1.0
  Ni  Ni270  1  0.16666667  0.00000000  0.46875000  1.0
  Ni  Ni271  1  0.16666667  0.33333333  0.46875000  1.0
  Ni  Ni272  1  0.16666667  0.66666667  0.46875000  1.0
  Ni  Ni273  1  0.50000000  0.00000000  0.46875000  1.0
  Ni  Ni274  1  0.50000000  0.33333333  0.46875000  1.0
  Ni  Ni275  1  0.50000000  0.66666667  0.46875000  1.0
  Ni  Ni276  1  0.83333333  0.00000000  0.46875000  1.0
  Ni  Ni277  1  0.83333333  0.33333333  0.46875000  1.0
  Ni  Ni278  1  0.83333333  0.66666667  0.46875000  1.0
  Ni  Ni279  1  0.00000000  0.16666667  0.34375000  1.0
  Ni  Ni280  1  0.00000000  0.50000000  0.34375000  1.0
  Ni  Ni281  1  0.00000000  0.83333333  0.34375000  1.0
  Ni  Ni282  1  0.33333333  0.16666667  0.34375000  1.0
  Ni  Ni283  1  0.33333333  0.50000000  0.34375000  1.0
  Ni  Ni284  1  0.33333333  0.83333333  0.34375000  1.0
  Ni  Ni285  1  0.66666667  0.16666667  0.34375000  1.0
  Ni  Ni286  1  0.66666667  0.50000000  0.34375000  1.0
  Ni  Ni287  1  0.66666667  0.83333333  0.34375000  1.0
