# generated using pymatgen
data_TiNi
_symmetry_space_group_name_H-M   'P 1'
_cell_length_a   26.12637653
_cell_length_b   18.47413801
_cell_length_c   36.13293260
_cell_angle_alpha   64.78166666
_cell_angle_beta   52.94709020
_cell_angle_gamma   45.00000000
_symmetry_Int_Tables_number   1
_chemical_formula_structural   TiNi
_chemical_formula_sum   'Ti144 Ni144'
_cell_volume   9841.87153409
_cell_formula_units_Z   144
loop_
 _symmetry_equiv_pos_site_id
 _symmetry_equiv_pos_as_xyz
  1  'x, y, z'
loop_
 _atom_site_type_symbol
 _atom_site_label
 _atom_site_symmetry_multiplicity
 _atom_site_fract_x
 _atom_site_fract_y
 _atom_site_fract_z
 _atom_site_occupancy
  Ti  Ti0  1  0.24272000  0.00000000  0.08275720  1.0
  Ti  Ti1  1  0.24272000  0.33333333  0.08275720  1.0
  Ti  Ti2  1  0.24272000  0.66666667  0.08275720  1.0
  Ti  Ti3  1  0.57605333  0.00000000  0.08275720  1.0
  Ti  Ti4  1  0.57605333  0.33333333  0.08275720  1.0
  Ti  Ti5  1  0.57605333  0.66666667  0.08275720  1.0
  Ti  Ti6  1  0.90938667  0.00000000  0.08275720  1.0
  Ti  Ti7  1  0.90938667  0.33333333  0.08275720  1.0
  Ti  Ti8  1  0.90938667  0.66666667  0.08275720  1.0
  Ti  Ti9  1  0.09061333  0.00000000  0.06528520  1.0
  Ti  Ti10  1  0.09061333  0.33333333  0.06528520  1.0
  Ti  Ti11  1  0.09061333  0.66666667  0.06528520  1.0
  Ti  Ti12  1  0.42394667  0.00000000  0.06528520  1.0
  Ti  Ti13  1  0.42394667  0.33333333  0.06528520  1.0
  Ti  Ti14  1  0.42394667  0.66666667  0.06528520  1.0
  Ti  Ti15  1  0.75728000  0.00000000  0.06528520  1.0
  Ti  Ti16  1  0.75728000  0.33333333  0.06528520  1.0
  Ti  Ti17  1  0.75728000  0.66666667  0.06528520  1.0
  Ti  Ti18  1  0.08333333  0.16666667  0.07402120  1.0
  Ti  Ti19  1  0.08333333  0.50000000  0.07402120  1.0
  Ti  Ti20  1  0.08333333  0.83333333  0.07402120  1.0
  Ti  Ti21  1  0.41666667  0.16666667  0.07402120  1.0
  Ti  Ti22  1  0.41666667  0.50000000  0.07402120  1.0
  Ti  Ti23  1  0.41666667  0.83333333  0.07402120  1.0
  Ti  Ti24  1  0.75000000  0.16666667  0.07402120  1.0
  Ti  Ti25  1  0.75000000  0.50000000  0.07402120  1.0
  Ti  Ti26  1  0.75000000  0.83333333  0.07402120  1.0
  Ti  Ti27  1  0.25000000  0.16666667  0.07402120  1.0
  Ti  Ti28  1  0.25000000  0.50000000  0.07402120  1.0
  Ti  Ti29  1  0.25000000  0.83333333  0.07402120  1.0
  Ti  Ti30  1  0.58333333  0.16666667  0.07402120  1.0
  Ti  Ti31  1  0.58333333  0.50000000  0.07402120  1.0
  Ti  Ti32  1  0.58333333  0.83333333  0.07402120  1.0
  Ti  Ti33  1  0.91666667  0.16666667  0.07402120  1.0
  Ti  Ti34  1  0.91666667  0.50000000  0.07402120  1.0
  Ti  Ti35  1  0.91666667  0.83333333  0.07402120  1.0
  Ti  Ti36  1  0.16666667  0.16666667  0.17402120  1.0
  Ti  Ti37  1  0.16666667  0.50000000  0.17402120  1.0
  Ti  Ti38  1  0.16666667  0.83333333  0.17402120  1.0
  Ti  Ti39  1  0.50000000  0.16666667  0.17402120  1.0
  Ti  Ti40  1  0.50000000  0.50000000  0.17402120  1.0
  Ti  Ti41  1  0.50000000  0.83333333  0.17402120  1.0
  Ti  Ti42  1  0.83333333  0.16666667  0.17402120  1.0
  Ti  Ti43  1  0.83333333  0.50000000  0.17402120  1.0
  Ti  Ti44  1  0.83333333  0.83333333  0.17402120  1.0
  Ti  Ti45  1  0.00000000  0.16666667  0.17402120  1.0
  Ti  Ti46  1  0.00000000  0.50000000  0.17402120  1.0
  Ti  Ti47  1  0.00000000  0.83333333  0.17402120  1.0
  Ti  Ti48  1  0.33333333  0.16666667  0.17402120  1.0
  Ti  Ti49  1  0.33333333  0.50000000  0.17402120  1.0
  Ti  Ti50  1  0.33333333  0.83333333  0.17402120  1.0
  Ti  Ti51  1  0.66666667  0.16666667  0.17402120  1.0
  Ti  Ti52  1  0.66666667  0.50000000  0.17402120  1.0
  Ti  Ti53  1  0.66666667  0.83333333  0.17402120  1.0
  Ti  Ti54  1  0.16666667  0.00000000  0.17402120  1.0
  Ti  Ti55  1  0.16666667  0.33333333  0.17402120  1.0
  Ti  Ti56  1  0.16666667  0.66666667  0.17402120  1.0
  Ti  Ti57  1  0.50000000  0.00000000  0.17402120  1.0
  Ti  Ti58  1  0.50000000  0.33333333  0.17402120  1.0
  Ti  Ti59  1  0.50000000  0.66666667  0.17402120  1.0
  Ti  Ti60  1  0.83333333  0.00000000  0.17402120  1.0
  Ti  Ti61  1  0.83333333  0.33333333  0.17402120  1.0
  Ti  Ti62  1  0.83333333  0.66666667  0.17402120  1.0
  Ti  Ti63  1  0.00000000  0.00000000  0.17402120  1.0
  Ti  Ti64  1  0.00000000  0.33333333  0.17402120  1.0
  Ti  Ti65  1  0.00000000  0.66666667  0.17402120  1.0
  Ti  Ti66  1  0.33333333  0.00000000  0.17402120  1.0
  Ti  Ti67  1  0.33333333  0.33333333  0.17402120  1.0
  Ti  Ti68  1  0.33333333  0.66666667  0.17402120  1.0
  Ti  Ti69  1  0.66666667  0.00000000  0.17402120  1.0
  Ti  Ti70  1  0.66666667  0.33333333  0.17402120  1.0
  Ti  Ti71  1  0.66666667  0.66666667  0.17402120  1.0
  Ni  Ni72  1  0.03156133  0.18361467  0.02597880  1.0
  Ni  Ni73  1  0.03156133  0.51694800  0.02597880  1.0
  Ni  Ni74  1  0.03156133  0.85028133  0.02597880  1.0
  Ni  Ni75  1  0.36489467  0.18361467  0.02597880  1.0
  Ni  Ni76  1  0.36489467  0.51694800  0.02597880  1.0
  Ni  Ni77  1  0.36489467  0.85028133  0.02597880  1.0
  Ni  Ni78  1  0.69822800  0.18361467  0.02597880  1.0
  Ni  Ni79  1  0.69822800  0.51694800  0.02597880  1.0
  Ni  Ni80  1  0.69822800  0.85028133  0.02597880  1.0
  Ni  Ni81  1  0.21517600  0.14971867  0.02597880  1.0
  Ni  Ni82  1  0.21517600  0.48305200  0.02597880  1.0
  Ni  Ni83  1  0.21517600  0.81638533  0.02597880  1.0
  Ni  Ni84  1  0.54850933  0.14971867  0.02597880  1.0
  Ni  Ni85  1  0.54850933  0.48305200  0.02597880  1.0
  Ni  Ni86  1  0.54850933  0.81638533  0.02597880  1.0
  Ni  Ni87  1  0.88184267  0.14971867  0.02597880  1.0
  Ni  Ni88  1  0.88184267  0.48305200  0.02597880  1.0
  Ni  Ni89  1  0.88184267  0.81638533  0.02597880  1.0
  Ni  Ni90  1  0.21517600  0.00000000  0.02597880  1.0
  Ni  Ni91  1  0.21517600  0.33333333  0.02597880  1.0
  Ni  Ni92  1  0.21517600  0.66666667  0.02597880  1.0
  Ni  Ni93  1  0.54850933  0.00000000  0.02597880  1.0
  Ni  Ni94  1  0.54850933  0.33333333  0.02597880  1.0
  Ni  Ni95  1  0.54850933  0.66666667  0.02597880  1.0
  Ni  Ni96  1  0.88184267  0.00000000  0.02597880  1.0
  Ni  Ni97  1  0.88184267  0.33333333  0.02597880  1.0
  Ni  Ni98  1  0.88184267  0.66666667  0.02597880  1.0
  Ni  Ni99  1  0.03156133  0.00000000  0.02597880  1.0
  Ni  Ni100  1  0.03156133  0.33333333  0.02597880  1.0
  Ni  Ni101  1  0.03156133  0.66666667  0.02597880  1.0
  Ni  Ni102  1  0.36489467  0.00000000  0.02597880  1.0
  Ni  Ni103  1  0.36489467  0.33333333  0.02597880  1.0
  Ni  Ni104  1  0.36489467  0.66666667  0.02597880  1.0
  Ni  Ni105  1  0.69822800  0.00000000  0.02597880  1.0
  Ni  Ni106  1  0.69822800  0.33333333  0.02597880  1.0
  Ni  Ni107  1  0.69822800  0.66666667  0.02597880  1.0
  Ni  Ni108  1  0.30177200  0.14971867  0.12206360  1.0
  Ni  Ni109  1  0.30177200  0.48305200  0.12206360  1.0
  Ni  Ni110  1  0.30177200  0.81638533  0.12206360  1.0
  Ni  Ni111  1  0.63510533  0.14971867  0.12206360  1.0
  Ni  Ni112  1  0.63510533  0.48305200  0.12206360  1.0
  Ni  Ni113  1  0.63510533  0.81638533  0.12206360  1.0
  Ni  Ni114  1  0.96843867  0.14971867  0.12206360  1.0
  Ni  Ni115  1  0.96843867  0.48305200  0.12206360  1.0
  Ni  Ni116  1  0.96843867  0.81638533  0.12206360  1.0
  Ni  Ni117  1  0.11815733  0.18361467  0.12206360  1.0
  Ni  Ni118  1  0.11815733  0.51694800  0.12206360  1.0
  Ni  Ni119  1  0.11815733  0.85028133  0.12206360  1.0
  Ni  Ni120  1  0.45149067  0.18361467  0.12206360  1.0
  Ni  Ni121  1  0.45149067  0.51694800  0.12206360  1.0
  Ni  Ni122  1  0.45149067  0.85028133  0.12206360  1.0
  Ni  Ni123  1  0.78482400  0.18361467  0.12206360  1.0
  Ni  Ni124  1  0.78482400  0.51694800  0.12206360  1.0
  Ni  Ni125  1  0.78482400  0.85028133  0.12206360  1.0
  Ni  Ni126  1  0.11815733  0.00000000  0.12206360  1.0
  Ni  Ni127  1  0.11815733  0.33333333  0.12206360  1.0
  Ni  Ni128  1  0.11815733  0.66666667  0.12206360  1.0
  Ni  Ni129  1  0.45149067  0.00000000  0.12206360  1.0
  Ni  Ni130  1  0.45149067  0.33333333  0.12206360  1.0
  Ni  Ni131  1  0.45149067  0.66666667  0.12206360  1.0
  Ni  Ni132  1  0.78482400  0.00000000  0.12206360  1.0
  Ni  Ni133  1  0.78482400  0.33333333  0.12206360  1.0
  Ni  Ni134  1  0.78482400  0.66666667  0.12206360  1.0
  Ni  Ni135  1  0.30177200  0.00000000  0.12206360  1.0
  Ni  Ni136  1  0.30177200  0.33333333  0.12206360  1.0
  Ni  Ni137  1  0.30177200  0.66666667  0.12206360  1.0
  Ni  Ni138  1  0.63510533  0.00000000  0.12206360  1.0
  Ni  Ni139  1  0.63510533  0.33333333  0.12206360  1.0
  Ni  Ni140  1  0.63510533  0.66666667  0.12206360  1.0
  Ni  Ni141  1  0.96843867  0.00000000  0.12206360  1.0
  Ni  Ni142  1  0.96843867  0.33333333  0.12206360  1.0
  Ni  Ni143  1  0.96843867  0.66666667  0.12206360  1.0
  Ti  Ti144  1  0.24272000  0.00000000  0.28275720  1.0
  Ti  Ti145  1  0.24272000  0.33333333  0.28275720  1.0
  Ti  Ti146  1  0.24272000  0.66666667  0.28275720  1.0
  Ti  Ti147  1  0.57605333  0.00000000  0.28275720  1.0
  Ti  Ti148  1  0.57605333  0.33333333  0.28275720  1.0
  Ti  Ti149  1  0.57605333  0.66666667  0.28275720  1.0
  Ti  Ti150  1  0.90938667  0.00000000  0.28275720  1.0
  Ti  Ti151  1  0.90938667  0.33333333  0.28275720  1.0
  Ti  Ti152  1  0.90938667  0.66666667  0.28275720  1.0
  Ti  Ti153  1  0.09061333  0.00000000  0.26528520  1.0
  Ti  Ti154  1  0.09061333  0.33333333  0.26528520  1.0
  Ti  Ti155  1  0.09061333  0.66666667  0.26528520  1.0
  Ti  Ti156  1  0.42394667  0.00000000  0.26528520  1.0
  Ti  Ti157  1  0.42394667  0.33333333  0.26528520  1.0
  Ti  Ti158  1  0.42394667  0.66666667  0.26528520  1.0
  Ti  Ti159  1  0.75728000  0.00000000  0.26528520  1.0
  Ti  Ti160  1  0.75728000  0.33333333  0.26528520  1.0
  Ti  Ti161  1  0.75728000  0.66666667  0.26528520  1.0
  Ti  Ti162  1  0.08333333  0.16666667  0.27402120  1.0
  Ti  Ti163  1  0.08333333  0.50000000  0.27402120  1.0
  Ti  Ti164  1  0.08333333  0.83333333  0.27402120  1.0
  Ti  Ti165  1  0.41666667  0.16666667  0.27402120  1.0
  Ti  Ti166  1  0.41666667  0.50000000  0.27402120  1.0
  Ti  Ti167  1  0.41666667  0.83333333  0.27402120  1.0
  Ti  Ti168  1  0.75000000  0.16666667  0.27402120  1.0
  Ti  Ti169  1  0.75000000  0.50000000  0.27402120  1.0
  Ti  Ti170  1  0.75000000  0.83333333  0.27402120  1.0
  Ti  Ti171  1  0.25000000  0.16666667  0.27402120  1.0
  Ti  Ti172  1  0.25000000  0.50000000  0.27402120  1.0
  Ti  Ti173  1  0.25000000  0.83333333  0.27402120  1.0
  Ti  Ti174  1  0.58333333  0.16666667  0.27402120  1.0
  Ti  Ti175  1  0.58333333  0.50000000  0.27402120  1.0
  Ti  Ti176  1  0.58333333  0.83333333  0.27402120  1.0
  Ti  Ti177  1  0.91666667  0.16666667  0.27402120  1.0
  Ti  Ti178  1  0.91666667  0.50000000  0.27402120  1.0
  Ti  Ti179  1  0.91666667  0.83333333  0.27402120  1.0
  Ti  Ti180  1  0.16666667  0.16666667  0.37402120  1.0
  Ti  Ti181  1  0.16666667  0.50000000  0.37402120  1.0
  Ti  Ti182  1  0.16666667  0.83333333  0.37402120  1.0
  Ti  Ti183  1  0.50000000  0.16666667  0.37402120  1.0
  Ti  Ti184  1  0.50000000  0.50000000  0.37402120  1.0
  Ti  Ti185  1  0.50000000  0.83333333  0.37402120  1.0
  Ti  Ti186  1  0.83333333  0.16666667  0.37402120  1.0
  Ti  Ti187  1  0.83333333  0.50000000  0.37402120  1.0
  Ti  Ti188  1  0.83333333  0.83333333  0.37402120  1.0
  Ti  Ti189  1  0.00000000  0.16666667  0.37402120  1.0
  Ti  Ti190  1  0.00000000  0.50000000  0.37402120  1.0
  Ti  Ti191  1  0.00000000  0.83333333  0.37402120  1.0
  Ti  Ti192  1  0.33333333  0.16666667  0.37402120  1.0
  Ti  Ti193  1  0.33333333  0.50000000  0.37402120  1.0
  Ti  Ti194  1  0.33333333  0.83333333  0.37402120  1.0
  Ti  Ti195  1  0.66666667  0.16666667  0.37402120  1.0
  Ti  Ti196  1  0.66666667  0.50000000  0.37402120  1.0
  Ti  Ti197  1  0.66666667  0.83333333  0.37402120  1.0
  Ti  Ti198  1  0.16666667  0.00000000  0.37402120  1.0
  Ti  Ti199  1  0.16666667  0.33333333  0.37402120  1.0
  Ti  Ti200  1  0.16666667  0.66666667  0.37402120  1.0
  Ti  Ti201  1  0.50000000  0.00000000  0.37402120  1.0
  Ti  Ti202  1  0.50000000  0.33333333  0.37402120  1.0
  Ti  Ti203  1  0.50000000  0.66666667  0.37402120  1.0
  Ti  Ti204  1  0.83333333  0.00000000  0.37402120  1.0
  Ti  Ti205  1  0.83333333  0.33333333  0.37402120  1.0
  Ti  Ti206  1  0.83333333  0.66666667  0.37402120  1.0
  Ti  Ti207  1  0.00000000  0.00000000  0.37402120  1.0
  Ti  Ti208  1  0.00000000  0.33333333  0.37402120  1.0
  Ti  Ti209  1  0.00000000  0.66666667  0.37402120  1.0
  Ti  Ti210  1  0.33333333  0.00000000  0.37402120  1.0
  Ti  Ti211  1  0.33333333  0.33333333  0.37402120  1.0
  Ti  Ti212  1  0.33333333  0.66666667  0.37402120  1.0
  Ti  Ti213  1  0.66666667  0.00000000  0.37402120  1.0
  Ti  Ti214  1  0.66666667  0.33333333  0.37402120  1.0
  Ti  Ti215  1  0.66666667  0.66666667  0.37402120  1.0
  Ni  Ni216  1  0.03156133  0.18361467  0.22597880  1.0
  Ni  Ni217  1  0.03156133  0.51694800  0.22597880  1.0
  Ni  Ni218  1  0.03156133  0.85028133  0.22597880  1.0
  Ni  Ni219  1  0.36489467  0.18361467  0.22597880  1.0
  Ni  Ni220  1  0.36489467  0.51694800  0.22597880  1.0
  Ni  Ni221  1  0.36489467  0.85028133  0.22597880  1.0
  Ni  Ni222  1  0.69822800  0.18361467  0.22597880  1.0
  Ni  Ni223  1  0.69822800  0.51694800  0.22597880  1.0
  Ni  Ni224  1  0.69822800  0.85028133  0.22597880  1.0
  Ni  Ni225  1  0.21517600  0.14971867  0.22597880  1.0
  Ni  Ni226  1  0.21517600  0.48305200  0.22597880  1.0
  Ni  Ni227  1  0.21517600  0.81638533  0.22597880  1.0
  Ni  Ni228  1  0.54850933  0.14971867  0.22597880  1.0
  Ni  Ni229  1  0.54850933  0.48305200  0.22597880  1.0
  Ni  Ni230  1  0.54850933  0.81638533  0.22597880  1.0
  Ni  Ni231  1  0.88184267  0.14971867  0.22597880  1.0
  Ni  Ni232  1  0.88184267  0.48305200  0.22597880  1.0
  Ni  Ni233  1  0.88184267  0.81638533  0.22597880  1.0
  Ni  Ni234  1  0.21517600  0.00000000  0.22597880  1.0
  Ni  Ni235  1  0.21517600  0.33333333  0.22597880  1.0
  Ni  Ni236  1  0.21517600  0.66666667  0.22597880  1.0
  Ni  Ni237  1  0.54850933  0.00000000  0.22597880  1.0
  Ni  Ni238  1  0.54850933  0.33333333  0.22597880  1.0
  Ni  Ni239  1  0.54850933  0.66666667  0.22597880  1.0
  Ni  Ni240  1  0.88184267  0.00000000  0.22597880  1.0
  Ni  Ni241  1  0.88184267  0.33333333  0.22597880  1.0
  Ni  Ni242  1  0.88184267  0.66666667  0.22597880  1.0
  Ni  Ni243  1  0.03156133  0.00000000  0.22597880  1.0
  Ni  Ni244  1  0.03156133  0.33333333  0.22597880  1.0
  Ni  Ni245  1  0.03156133  0.66666667  0.22597880  1.0
  Ni  Ni246  1  0.36489467  0.00000000  0.22597880  1.0
  Ni  Ni247  1  0.36489467  0.33333333  0.22597880  1.0
  Ni  Ni248  1  0.36489467  0.66666667  0.22597880  1.0
  Ni  Ni249  1  0.69822800  0.00000000  0.22597880  1.0
  Ni  Ni250  1  0.69822800  0.33333333  0.22597880  1.0
  Ni  Ni251  1  0.69822800  0.66666667  0.22597880  1.0
  Ni  Ni252  1  0.30177200  0.14971867  0.32206360  1.0
  Ni  Ni253  1  0.30177200  0.48305200  0.32206360  1.0
  Ni  Ni254  1  0.30177200  0.81638533  0.32206360  1.0
  Ni  Ni255  1  0.63510533  0.14971867  0.32206360  1.0
  Ni  Ni256  1  0.63510533  0.48305200  0.32206360  1.0
  Ni  Ni257  1  0.63510533  0.81638533  0.32206360  1.0
  Ni  Ni258  1  0.96843867  0.14971867  0.32206360  1.0
  Ni  Ni259  1  0.96843867  0.48305200  0.32206360  1.0
  Ni  Ni260  1  0.96843867  0.81638533  0.32206360  1.0
  Ni  Ni261  1  0.11815733  0.18361467  0.32206360  1.0
  Ni  Ni262  1  0.11815733  0.51694800  0.32206360  1.0
  Ni  Ni263  1  0.11815733  0.85028133  0.32206360  1.0
  Ni  Ni264  1  0.45149067  0.18361467  0.32206360  1.0
  Ni  Ni265  1  0.45149067  0.51694800  0.32206360  1.0
  Ni  Ni266  1  0.45149067  0.85028133  0.32206360  1.0
  Ni  Ni267  1  0.78482400  0.18361467  0.32206360  1.0
  Ni  Ni268  1  0.78482400  0.51694800  0.32206360  1.0
  Ni  Ni269  1  0.78482400  0.85028133  0.32206360  1.0
  Ni  Ni270  1  0.11815733  0.00000000  0.32206360  1.0
  Ni  Ni271  1  0.11815733  0.33333333  0.32206360  1.0
  Ni  Ni272  1  0.11815733  0.66666667  0.32206360  1.0
  Ni  Ni273  1  0.45149067  0.00000000  0.32206360  1.0
  Ni  Ni274  1  0.45149067  0.33333333  0.32206360  1.0
  Ni  Ni275  1  0.45149067  0.66666667  0.32206360  1.0
  Ni  Ni276  1  0.78482400  0.00000000  0.32206360  1.0
  Ni  Ni277  1  0.78482400  0.33333333  0.32206360  1.0
  Ni  Ni278  1  0.78482400  0.66666667  0.32206360  1.0
  Ni  Ni279  1  0.30177200  0.00000000  0.32206360  1.0
  Ni  Ni280  1  0.30177200  0.33333333  0.32206360  1.0
  Ni  Ni281  1  0.30177200  0.66666667  0.32206360  1.0
  Ni  Ni282  1  0.63510533  0.00000000  0.32206360  1.0
  Ni  Ni283  1  0.63510533  0.33333333  0.32206360  1.0
  Ni  Ni284  1  0.63510533  0.66666667  0.32206360  1.0
  Ni  Ni285  1  0.96843867  0.00000000  0.32206360  1.0
  Ni  Ni286  1  0.96843867  0.33333333  0.32206360  1.0
  Ni  Ni287  1  0.96843867  0.66666667  0.32206360  1.0
