# generated using pymatgen
data_TiNi
_symmetry_space_group_name_H-M   'P 1'
_cell_length_a   8.21954700
_cell_length_b   14.07120750
_cell_length_c   38.37905571
_cell_angle_alpha   89.99409912
_cell_angle_beta   90.09492109
_cell_angle_gamma   94.96047383
_symmetry_Int_Tables_number   1
_chemical_formula_structural   TiNi
_chemical_formula_sum   'Ti54 Ni54'
_cell_volume   4422.24982030
_cell_formula_units_Z   54
loop_
 _symmetry_equiv_pos_site_id
 _symmetry_equiv_pos_as_xyz
  1  'x, y, z'
loop_
 _atom_site_type_symbol
 _atom_site_label
 _atom_site_symmetry_multiplicity
 _atom_site_fract_x
 _atom_site_fract_y
 _atom_site_fract_z
 _atom_site_occupancy
  Ti  Ti0  1  0.19262133  0.26575700  0.02747200  1.0
  Ti  Ti1  1  0.19262133  0.59909033  0.02747200  1.0
  Ti  Ti2  1  0.19262133  0.93242367  0.02747200  1.0
  Ti  Ti3  1  0.52595467  0.26575700  0.02747200  1.0
  Ti  Ti4  1  0.52595467  0.59909033  0.02747200  1.0
  Ti  Ti5  1  0.52595467  0.93242367  0.02747200  1.0
  Ti  Ti6  1  0.85928800  0.26575700  0.02747200  1.0
  Ti  Ti7  1  0.85928800  0.59909033  0.02747200  1.0
  Ti  Ti8  1  0.85928800  0.93242367  0.02747200  1.0
  Ti  Ti9  1  0.14071200  0.06757633  0.30586133  1.0
  Ti  Ti10  1  0.14071200  0.40090967  0.30586133  1.0
  Ti  Ti11  1  0.14071200  0.73424300  0.30586133  1.0
  Ti  Ti12  1  0.47404533  0.06757633  0.30586133  1.0
  Ti  Ti13  1  0.47404533  0.40090967  0.30586133  1.0
  Ti  Ti14  1  0.47404533  0.73424300  0.30586133  1.0
  Ti  Ti15  1  0.80737867  0.06757633  0.30586133  1.0
  Ti  Ti16  1  0.80737867  0.40090967  0.30586133  1.0
  Ti  Ti17  1  0.80737867  0.73424300  0.30586133  1.0
  Ti  Ti18  1  0.15967333  0.07474333  0.08372800  1.0
  Ti  Ti19  1  0.15967333  0.40807667  0.08372800  1.0
  Ti  Ti20  1  0.15967333  0.74141000  0.08372800  1.0
  Ti  Ti21  1  0.49300667  0.07474333  0.08372800  1.0
  Ti  Ti22  1  0.49300667  0.40807667  0.08372800  1.0
  Ti  Ti23  1  0.49300667  0.74141000  0.08372800  1.0
  Ti  Ti24  1  0.82634000  0.07474333  0.08372800  1.0
  Ti  Ti25  1  0.82634000  0.40807667  0.08372800  1.0
  Ti  Ti26  1  0.82634000  0.74141000  0.08372800  1.0
  Ti  Ti27  1  0.13541900  0.06496533  0.19503000  1.0
  Ti  Ti28  1  0.13541900  0.39829867  0.19503000  1.0
  Ti  Ti29  1  0.13541900  0.73163200  0.19503000  1.0
  Ti  Ti30  1  0.46875233  0.06496533  0.19503000  1.0
  Ti  Ti31  1  0.46875233  0.39829867  0.19503000  1.0
  Ti  Ti32  1  0.46875233  0.73163200  0.19503000  1.0
  Ti  Ti33  1  0.80208567  0.06496533  0.19503000  1.0
  Ti  Ti34  1  0.80208567  0.39829867  0.19503000  1.0
  Ti  Ti35  1  0.80208567  0.73163200  0.19503000  1.0
  Ti  Ti36  1  0.19791433  0.26836800  0.13830333  1.0
  Ti  Ti37  1  0.19791433  0.60170133  0.13830333  1.0
  Ti  Ti38  1  0.19791433  0.93503467  0.13830333  1.0
  Ti  Ti39  1  0.53124767  0.26836800  0.13830333  1.0
  Ti  Ti40  1  0.53124767  0.60170133  0.13830333  1.0
  Ti  Ti41  1  0.53124767  0.93503467  0.13830333  1.0
  Ti  Ti42  1  0.86458100  0.26836800  0.13830333  1.0
  Ti  Ti43  1  0.86458100  0.60170133  0.13830333  1.0
  Ti  Ti44  1  0.86458100  0.93503467  0.13830333  1.0
  Ti  Ti45  1  0.17366000  0.25859000  0.24960533  1.0
  Ti  Ti46  1  0.17366000  0.59192333  0.24960533  1.0
  Ti  Ti47  1  0.17366000  0.92525667  0.24960533  1.0
  Ti  Ti48  1  0.50699333  0.25859000  0.24960533  1.0
  Ti  Ti49  1  0.50699333  0.59192333  0.24960533  1.0
  Ti  Ti50  1  0.50699333  0.92525667  0.24960533  1.0
  Ti  Ti51  1  0.84032667  0.25859000  0.24960533  1.0
  Ti  Ti52  1  0.84032667  0.59192333  0.24960533  1.0
  Ti  Ti53  1  0.84032667  0.92525667  0.24960533  1.0
  Ni  Ni54  1  0.33092633  0.22427933  0.30505767  1.0
  Ni  Ni55  1  0.33092633  0.55761267  0.30505767  1.0
  Ni  Ni56  1  0.33092633  0.89094600  0.30505767  1.0
  Ni  Ni57  1  0.66425967  0.22427933  0.30505767  1.0
  Ni  Ni58  1  0.66425967  0.55761267  0.30505767  1.0
  Ni  Ni59  1  0.66425967  0.89094600  0.30505767  1.0
  Ni  Ni60  1  0.99759300  0.22427933  0.30505767  1.0
  Ni  Ni61  1  0.99759300  0.55761267  0.30505767  1.0
  Ni  Ni62  1  0.99759300  0.89094600  0.30505767  1.0
  Ni  Ni63  1  0.32947533  0.22202100  0.19410067  1.0
  Ni  Ni64  1  0.32947533  0.55535433  0.19410067  1.0
  Ni  Ni65  1  0.32947533  0.88868767  0.19410067  1.0
  Ni  Ni66  1  0.66280867  0.22202100  0.19410067  1.0
  Ni  Ni67  1  0.66280867  0.55535433  0.19410067  1.0
  Ni  Ni68  1  0.66280867  0.88868767  0.19410067  1.0
  Ni  Ni69  1  0.99614200  0.22202100  0.19410067  1.0
  Ni  Ni70  1  0.99614200  0.55535433  0.19410067  1.0
  Ni  Ni71  1  0.99614200  0.88868767  0.19410067  1.0
  Ni  Ni72  1  0.01792333  0.22978000  0.08253300  1.0
  Ni  Ni73  1  0.01792333  0.56311333  0.08253300  1.0
  Ni  Ni74  1  0.01792333  0.89644667  0.08253300  1.0
  Ni  Ni75  1  0.35125667  0.22978000  0.08253300  1.0
  Ni  Ni76  1  0.35125667  0.56311333  0.08253300  1.0
  Ni  Ni77  1  0.35125667  0.89644667  0.08253300  1.0
  Ni  Ni78  1  0.68459000  0.22978000  0.08253300  1.0
  Ni  Ni79  1  0.68459000  0.56311333  0.08253300  1.0
  Ni  Ni80  1  0.68459000  0.89644667  0.08253300  1.0
  Ni  Ni81  1  0.00240700  0.10905400  0.02827567  1.0
  Ni  Ni82  1  0.00240700  0.44238733  0.02827567  1.0
  Ni  Ni83  1  0.00240700  0.77572067  0.02827567  1.0
  Ni  Ni84  1  0.33574033  0.10905400  0.02827567  1.0
  Ni  Ni85  1  0.33574033  0.44238733  0.02827567  1.0
  Ni  Ni86  1  0.33574033  0.77572067  0.02827567  1.0
  Ni  Ni87  1  0.66907367  0.10905400  0.02827567  1.0
  Ni  Ni88  1  0.66907367  0.44238733  0.02827567  1.0
  Ni  Ni89  1  0.66907367  0.77572067  0.02827567  1.0
  Ni  Ni90  1  0.00385800  0.11131233  0.13923267  1.0
  Ni  Ni91  1  0.00385800  0.44464567  0.13923267  1.0
  Ni  Ni92  1  0.00385800  0.77797900  0.13923267  1.0
  Ni  Ni93  1  0.33719133  0.11131233  0.13923267  1.0
  Ni  Ni94  1  0.33719133  0.44464567  0.13923267  1.0
  Ni  Ni95  1  0.33719133  0.77797900  0.13923267  1.0
  Ni  Ni96  1  0.67052467  0.11131233  0.13923267  1.0
  Ni  Ni97  1  0.67052467  0.44464567  0.13923267  1.0
  Ni  Ni98  1  0.67052467  0.77797900  0.13923267  1.0
  Ni  Ni99  1  0.31541000  0.10355333  0.25080033  1.0
  Ni  Ni100  1  0.31541000  0.43688667  0.25080033  1.0
  Ni  Ni101  1  0.31541000  0.77022000  0.25080033  1.0
  Ni  Ni102  1  0.64874333  0.10355333  0.25080033  1.0
  Ni  Ni103  1  0.64874333  0.43688667  0.25080033  1.0
  Ni  Ni104  1  0.64874333  0.77022000  0.25080033  1.0
  Ni  Ni105  1  0.98207667  0.10355333  0.25080033  1.0
  Ni  Ni106  1  0.98207667  0.43688667  0.25080033  1.0
  Ni  Ni107  1  0.98207667  0.77022000  0.25080033  1.0
