# generated using pymatgen
data_TiNi
_symmetry_space_group_name_H-M   'P 1'
_cell_length_a   8.22417900
_cell_length_b   30.29768390
_cell_length_c   29.75947100
_cell_angle_alpha   114.89509853
_cell_angle_beta   90.00000000
_cell_angle_gamma   90.00000000
_symmetry_Int_Tables_number   1
_chemical_formula_structural   TiNi
_chemical_formula_sum   'Ti108 Ni108'
_cell_volume   6726.24677528
_cell_formula_units_Z   108
loop_
 _symmetry_equiv_pos_site_id
 _symmetry_equiv_pos_as_xyz
  1  'x, y, z'
loop_
 _atom_site_type_symbol
 _atom_site_label
 _atom_site_symmetry_multiplicity
 _atom_site_fract_x
 _atom_site_fract_y
 _atom_site_fract_z
 _atom_site_occupancy
  Ti  Ti0  1  0.16666667  0.11955417  0.08695179  1.0
  Ti  Ti1  1  0.16666667  0.45288750  0.08695179  1.0
  Ti  Ti2  1  0.16666667  0.78622083  0.08695179  1.0
  Ti  Ti3  1  0.50000000  0.11955417  0.08695179  1.0
  Ti  Ti4  1  0.50000000  0.45288750  0.08695179  1.0
  Ti  Ti5  1  0.50000000  0.78622083  0.08695179  1.0
  Ti  Ti6  1  0.83333333  0.11955417  0.08695179  1.0
  Ti  Ti7  1  0.83333333  0.45288750  0.08695179  1.0
  Ti  Ti8  1  0.83333333  0.78622083  0.08695179  1.0
  Ti  Ti9  1  0.16666667  0.28622083  0.01552321  1.0
  Ti  Ti10  1  0.16666667  0.61955417  0.01552321  1.0
  Ti  Ti11  1  0.16666667  0.95288750  0.01552321  1.0
  Ti  Ti12  1  0.50000000  0.28622083  0.01552321  1.0
  Ti  Ti13  1  0.50000000  0.61955417  0.01552321  1.0
  Ti  Ti14  1  0.50000000  0.95288750  0.01552321  1.0
  Ti  Ti15  1  0.83333333  0.28622083  0.01552321  1.0
  Ti  Ti16  1  0.83333333  0.61955417  0.01552321  1.0
  Ti  Ti17  1  0.83333333  0.95288750  0.01552321  1.0
  Ti  Ti18  1  0.16666667  0.04711250  0.12733393  1.0
  Ti  Ti19  1  0.16666667  0.38044583  0.12733393  1.0
  Ti  Ti20  1  0.16666667  0.71377917  0.12733393  1.0
  Ti  Ti21  1  0.50000000  0.04711250  0.12733393  1.0
  Ti  Ti22  1  0.50000000  0.38044583  0.12733393  1.0
  Ti  Ti23  1  0.50000000  0.71377917  0.12733393  1.0
  Ti  Ti24  1  0.83333333  0.04711250  0.12733393  1.0
  Ti  Ti25  1  0.83333333  0.38044583  0.12733393  1.0
  Ti  Ti26  1  0.83333333  0.71377917  0.12733393  1.0
  Ti  Ti27  1  0.16666667  0.21377917  0.05590536  1.0
  Ti  Ti28  1  0.16666667  0.54711250  0.05590536  1.0
  Ti  Ti29  1  0.16666667  0.88044583  0.05590536  1.0
  Ti  Ti30  1  0.50000000  0.21377917  0.05590536  1.0
  Ti  Ti31  1  0.50000000  0.54711250  0.05590536  1.0
  Ti  Ti32  1  0.50000000  0.88044583  0.05590536  1.0
  Ti  Ti33  1  0.83333333  0.21377917  0.05590536  1.0
  Ti  Ti34  1  0.83333333  0.54711250  0.05590536  1.0
  Ti  Ti35  1  0.83333333  0.88044583  0.05590536  1.0
  Ni  Ni36  1  0.00000000  0.03169217  0.04929664  1.0
  Ni  Ni37  1  0.00000000  0.36502550  0.04929664  1.0
  Ni  Ni38  1  0.00000000  0.69835883  0.04929664  1.0
  Ni  Ni39  1  0.33333333  0.03169217  0.04929664  1.0
  Ni  Ni40  1  0.33333333  0.36502550  0.04929664  1.0
  Ni  Ni41  1  0.33333333  0.69835883  0.04929664  1.0
  Ni  Ni42  1  0.66666667  0.03169217  0.04929664  1.0
  Ni  Ni43  1  0.66666667  0.36502550  0.04929664  1.0
  Ni  Ni44  1  0.66666667  0.69835883  0.04929664  1.0
  Ni  Ni45  1  0.00000000  0.19835883  0.12072521  1.0
  Ni  Ni46  1  0.00000000  0.53169217  0.12072521  1.0
  Ni  Ni47  1  0.00000000  0.86502550  0.12072521  1.0
  Ni  Ni48  1  0.33333333  0.19835883  0.12072521  1.0
  Ni  Ni49  1  0.33333333  0.53169217  0.12072521  1.0
  Ni  Ni50  1  0.33333333  0.86502550  0.12072521  1.0
  Ni  Ni51  1  0.66666667  0.19835883  0.12072521  1.0
  Ni  Ni52  1  0.66666667  0.53169217  0.12072521  1.0
  Ni  Ni53  1  0.66666667  0.86502550  0.12072521  1.0
  Ni  Ni54  1  0.00000000  0.13497450  0.02213193  1.0
  Ni  Ni55  1  0.00000000  0.46830783  0.02213193  1.0
  Ni  Ni56  1  0.00000000  0.80164117  0.02213193  1.0
  Ni  Ni57  1  0.33333333  0.13497450  0.02213193  1.0
  Ni  Ni58  1  0.33333333  0.46830783  0.02213193  1.0
  Ni  Ni59  1  0.33333333  0.80164117  0.02213193  1.0
  Ni  Ni60  1  0.66666667  0.13497450  0.02213193  1.0
  Ni  Ni61  1  0.66666667  0.46830783  0.02213193  1.0
  Ni  Ni62  1  0.66666667  0.80164117  0.02213193  1.0
  Ni  Ni63  1  0.00000000  0.30164117  0.09356050  1.0
  Ni  Ni64  1  0.00000000  0.63497450  0.09356050  1.0
  Ni  Ni65  1  0.00000000  0.96830783  0.09356050  1.0
  Ni  Ni66  1  0.33333333  0.30164117  0.09356050  1.0
  Ni  Ni67  1  0.33333333  0.63497450  0.09356050  1.0
  Ni  Ni68  1  0.33333333  0.96830783  0.09356050  1.0
  Ni  Ni69  1  0.66666667  0.30164117  0.09356050  1.0
  Ni  Ni70  1  0.66666667  0.63497450  0.09356050  1.0
  Ni  Ni71  1  0.66666667  0.96830783  0.09356050  1.0
  Ti  Ti72  1  0.16666667  0.11955417  0.22980893  1.0
  Ti  Ti73  1  0.16666667  0.45288750  0.22980893  1.0
  Ti  Ti74  1  0.16666667  0.78622083  0.22980893  1.0
  Ti  Ti75  1  0.50000000  0.11955417  0.22980893  1.0
  Ti  Ti76  1  0.50000000  0.45288750  0.22980893  1.0
  Ti  Ti77  1  0.50000000  0.78622083  0.22980893  1.0
  Ti  Ti78  1  0.83333333  0.11955417  0.22980893  1.0
  Ti  Ti79  1  0.83333333  0.45288750  0.22980893  1.0
  Ti  Ti80  1  0.83333333  0.78622083  0.22980893  1.0
  Ti  Ti81  1  0.16666667  0.28622083  0.15838036  1.0
  Ti  Ti82  1  0.16666667  0.61955417  0.15838036  1.0
  Ti  Ti83  1  0.16666667  0.95288750  0.15838036  1.0
  Ti  Ti84  1  0.50000000  0.28622083  0.15838036  1.0
  Ti  Ti85  1  0.50000000  0.61955417  0.15838036  1.0
  Ti  Ti86  1  0.50000000  0.95288750  0.15838036  1.0
  Ti  Ti87  1  0.83333333  0.28622083  0.15838036  1.0
  Ti  Ti88  1  0.83333333  0.61955417  0.15838036  1.0
  Ti  Ti89  1  0.83333333  0.95288750  0.15838036  1.0
  Ti  Ti90  1  0.16666667  0.04711250  0.27019107  1.0
  Ti  Ti91  1  0.16666667  0.38044583  0.27019107  1.0
  Ti  Ti92  1  0.16666667  0.71377917  0.27019107  1.0
  Ti  Ti93  1  0.50000000  0.04711250  0.27019107  1.0
  Ti  Ti94  1  0.50000000  0.38044583  0.27019107  1.0
  Ti  Ti95  1  0.50000000  0.71377917  0.27019107  1.0
  Ti  Ti96  1  0.83333333  0.04711250  0.27019107  1.0
  Ti  Ti97  1  0.83333333  0.38044583  0.27019107  1.0
  Ti  Ti98  1  0.83333333  0.71377917  0.27019107  1.0
  Ti  Ti99  1  0.16666667  0.21377917  0.19876250  1.0
  Ti  Ti100  1  0.16666667  0.54711250  0.19876250  1.0
  Ti  Ti101  1  0.16666667  0.88044583  0.19876250  1.0
  Ti  Ti102  1  0.50000000  0.21377917  0.19876250  1.0
  Ti  Ti103  1  0.50000000  0.54711250  0.19876250  1.0
  Ti  Ti104  1  0.50000000  0.88044583  0.19876250  1.0
  Ti  Ti105  1  0.83333333  0.21377917  0.19876250  1.0
  Ti  Ti106  1  0.83333333  0.54711250  0.19876250  1.0
  Ti  Ti107  1  0.83333333  0.88044583  0.19876250  1.0
  Ni  Ni108  1  0.00000000  0.03169217  0.19215379  1.0
  Ni  Ni109  1  0.00000000  0.36502550  0.19215379  1.0
  Ni  Ni110  1  0.00000000  0.69835883  0.19215379  1.0
  Ni  Ni111  1  0.33333333  0.03169217  0.19215379  1.0
  Ni  Ni112  1  0.33333333  0.36502550  0.19215379  1.0
  Ni  Ni113  1  0.33333333  0.69835883  0.19215379  1.0
  Ni  Ni114  1  0.66666667  0.03169217  0.19215379  1.0
  Ni  Ni115  1  0.66666667  0.36502550  0.19215379  1.0
  Ni  Ni116  1  0.66666667  0.69835883  0.19215379  1.0
  Ni  Ni117  1  0.00000000  0.19835883  0.26358236  1.0
  Ni  Ni118  1  0.00000000  0.53169217  0.26358236  1.0
  Ni  Ni119  1  0.00000000  0.86502550  0.26358236  1.0
  Ni  Ni120  1  0.33333333  0.19835883  0.26358236  1.0
  Ni  Ni121  1  0.33333333  0.53169217  0.26358236  1.0
  Ni  Ni122  1  0.33333333  0.86502550  0.26358236  1.0
  Ni  Ni123  1  0.66666667  0.19835883  0.26358236  1.0
  Ni  Ni124  1  0.66666667  0.53169217  0.26358236  1.0
  Ni  Ni125  1  0.66666667  0.86502550  0.26358236  1.0
  Ni  Ni126  1  0.00000000  0.13497450  0.16498907  1.0
  Ni  Ni127  1  0.00000000  0.46830783  0.16498907  1.0
  Ni  Ni128  1  0.00000000  0.80164117  0.16498907  1.0
  Ni  Ni129  1  0.33333333  0.13497450  0.16498907  1.0
  Ni  Ni130  1  0.33333333  0.46830783  0.16498907  1.0
  Ni  Ni131  1  0.33333333  0.80164117  0.16498907  1.0
  Ni  Ni132  1  0.66666667  0.13497450  0.16498907  1.0
  Ni  Ni133  1  0.66666667  0.46830783  0.16498907  1.0
  Ni  Ni134  1  0.66666667  0.80164117  0.16498907  1.0
  Ni  Ni135  1  0.00000000  0.30164117  0.23641764  1.0
  Ni  Ni136  1  0.00000000  0.63497450  0.23641764  1.0
  Ni  Ni137  1  0.00000000  0.96830783  0.23641764  1.0
  Ni  Ni138  1  0.33333333  0.30164117  0.23641764  1.0
  Ni  Ni139  1  0.33333333  0.63497450  0.23641764  1.0
  Ni  Ni140  1  0.33333333  0.96830783  0.23641764  1.0
  Ni  Ni141  1  0.66666667  0.30164117  0.23641764  1.0
  Ni  Ni142  1  0.66666667  0.63497450  0.23641764  1.0
  Ni  Ni143  1  0.66666667  0.96830783  0.23641764  1.0
  Ti  Ti144  1  0.16666667  0.11955417  0.37266607  1.0
  Ti  Ti145  1  0.16666667  0.45288750  0.37266607  1.0
  Ti  Ti146  1  0.16666667  0.78622083  0.37266607  1.0
  Ti  Ti147  1  0.50000000  0.11955417  0.37266607  1.0
  Ti  Ti148  1  0.50000000  0.45288750  0.37266607  1.0
  Ti  Ti149  1  0.50000000  0.78622083  0.37266607  1.0
  Ti  Ti150  1  0.83333333  0.11955417  0.37266607  1.0
  Ti  Ti151  1  0.83333333  0.45288750  0.37266607  1.0
  Ti  Ti152  1  0.83333333  0.78622083  0.37266607  1.0
  Ti  Ti153  1  0.16666667  0.28622083  0.30123750  1.0
  Ti  Ti154  1  0.16666667  0.61955417  0.30123750  1.0
  Ti  Ti155  1  0.16666667  0.95288750  0.30123750  1.0
  Ti  Ti156  1  0.50000000  0.28622083  0.30123750  1.0
  Ti  Ti157  1  0.50000000  0.61955417  0.30123750  1.0
  Ti  Ti158  1  0.50000000  0.95288750  0.30123750  1.0
  Ti  Ti159  1  0.83333333  0.28622083  0.30123750  1.0
  Ti  Ti160  1  0.83333333  0.61955417  0.30123750  1.0
  Ti  Ti161  1  0.83333333  0.95288750  0.30123750  1.0
  Ti  Ti162  1  0.16666667  0.04711250  0.41304821  1.0
  Ti  Ti163  1  0.16666667  0.38044583  0.41304821  1.0
  Ti  Ti164  1  0.16666667  0.71377917  0.41304821  1.0
  Ti  Ti165  1  0.50000000  0.04711250  0.41304821  1.0
  Ti  Ti166  1  0.50000000  0.38044583  0.41304821  1.0
  Ti  Ti167  1  0.50000000  0.71377917  0.41304821  1.0
  Ti  Ti168  1  0.83333333  0.04711250  0.41304821  1.0
  Ti  Ti169  1  0.83333333  0.38044583  0.41304821  1.0
  Ti  Ti170  1  0.83333333  0.71377917  0.41304821  1.0
  Ti  Ti171  1  0.16666667  0.21377917  0.34161964  1.0
  Ti  Ti172  1  0.16666667  0.54711250  0.34161964  1.0
  Ti  Ti173  1  0.16666667  0.88044583  0.34161964  1.0
  Ti  Ti174  1  0.50000000  0.21377917  0.34161964  1.0
  Ti  Ti175  1  0.50000000  0.54711250  0.34161964  1.0
  Ti  Ti176  1  0.50000000  0.88044583  0.34161964  1.0
  Ti  Ti177  1  0.83333333  0.21377917  0.34161964  1.0
  Ti  Ti178  1  0.83333333  0.54711250  0.34161964  1.0
  Ti  Ti179  1  0.83333333  0.88044583  0.34161964  1.0
  Ni  Ni180  1  0.00000000  0.03169217  0.33501093  1.0
  Ni  Ni181  1  0.00000000  0.36502550  0.33501093  1.0
  Ni  Ni182  1  0.00000000  0.69835883  0.33501093  1.0
  Ni  Ni183  1  0.33333333  0.03169217  0.33501093  1.0
  Ni  Ni184  1  0.33333333  0.36502550  0.33501093  1.0
  Ni  Ni185  1  0.33333333  0.69835883  0.33501093  1.0
  Ni  Ni186  1  0.66666667  0.03169217  0.33501093  1.0
  Ni  Ni187  1  0.66666667  0.36502550  0.33501093  1.0
  Ni  Ni188  1  0.66666667  0.69835883  0.33501093  1.0
  Ni  Ni189  1  0.00000000  0.19835883  0.40643950  1.0
  Ni  Ni190  1  0.00000000  0.53169217  0.40643950  1.0
  Ni  Ni191  1  0.00000000  0.86502550  0.40643950  1.0
  Ni  Ni192  1  0.33333333  0.19835883  0.40643950  1.0
  Ni  Ni193  1  0.33333333  0.53169217  0.40643950  1.0
  Ni  Ni194  1  0.33333333  0.86502550  0.40643950  1.0
  Ni  Ni195  1  0.66666667  0.19835883  0.40643950  1.0
  Ni  Ni196  1  0.66666667  0.53169217  0.40643950  1.0
  Ni  Ni197  1  0.66666667  0.86502550  0.40643950  1.0
  Ni  Ni198  1  0.00000000  0.13497450  0.30784621  1.0
  Ni  Ni199  1  0.00000000  0.46830783  0.30784621  1.0
  Ni  Ni200  1  0.00000000  0.80164117  0.30784621  1.0
  Ni  Ni201  1  0.33333333  0.13497450  0.30784621  1.0
  Ni  Ni202  1  0.33333333  0.46830783  0.30784621  1.0
  Ni  Ni203  1  0.33333333  0.80164117  0.30784621  1.0
  Ni  Ni204  1  0.66666667  0.13497450  0.30784621  1.0
  Ni  Ni205  1  0.66666667  0.46830783  0.30784621  1.0
  Ni  Ni206  1  0.66666667  0.80164117  0.30784621  1.0
  Ni  Ni207  1  0.00000000  0.30164117  0.37927479  1.0
  Ni  Ni208  1  0.00000000  0.63497450  0.37927479  1.0
  Ni  Ni209  1  0.00000000  0.96830783  0.37927479  1.0
  Ni  Ni210  1  0.33333333  0.30164117  0.37927479  1.0
  Ni  Ni211  1  0.33333333  0.63497450  0.37927479  1.0
  Ni  Ni212  1  0.33333333  0.96830783  0.37927479  1.0
  Ni  Ni213  1  0.66666667  0.30164117  0.37927479  1.0
  Ni  Ni214  1  0.66666667  0.63497450  0.37927479  1.0
  Ni  Ni215  1  0.66666667  0.96830783  0.37927479  1.0
