# generated using pymatgen
data_TiNi
_symmetry_space_group_name_H-M   'P 1'
_cell_length_a   14.88772471
_cell_length_b   19.04767488
_cell_length_c   26.52096016
_cell_angle_alpha   93.33561357
_cell_angle_beta   93.04817525
_cell_angle_gamma   112.10462786
_symmetry_Int_Tables_number   1
_chemical_formula_structural   TiNi
_chemical_formula_sum   'Ti108 Ni108'
_cell_volume   6933.18139587
_cell_formula_units_Z   108
loop_
 _symmetry_equiv_pos_site_id
 _symmetry_equiv_pos_as_xyz
  1  'x, y, z'
loop_
 _atom_site_type_symbol
 _atom_site_label
 _atom_site_symmetry_multiplicity
 _atom_site_fract_x
 _atom_site_fract_y
 _atom_site_fract_z
 _atom_site_occupancy
  Ni  Ni0  1  0.02025024  0.16347545  0.89322521  1.0
  Ni  Ni1  1  0.02025024  0.49680879  0.89322521  1.0
  Ni  Ni2  1  0.02025024  0.83014212  0.89322521  1.0
  Ni  Ni3  1  0.35358357  0.16347545  0.89322521  1.0
  Ni  Ni4  1  0.35358357  0.49680879  0.89322521  1.0
  Ni  Ni5  1  0.35358357  0.83014212  0.89322521  1.0
  Ni  Ni6  1  0.68691690  0.16347545  0.89322521  1.0
  Ni  Ni7  1  0.68691690  0.49680879  0.89322521  1.0
  Ni  Ni8  1  0.68691690  0.83014212  0.89322521  1.0
  Ni  Ni9  1  0.21072643  0.09204688  0.96465379  1.0
  Ni  Ni10  1  0.21072643  0.42538021  0.96465379  1.0
  Ni  Ni11  1  0.21072643  0.75871355  0.96465379  1.0
  Ni  Ni12  1  0.54405976  0.09204688  0.96465379  1.0
  Ni  Ni13  1  0.54405976  0.42538021  0.96465379  1.0
  Ni  Ni14  1  0.54405976  0.75871355  0.96465379  1.0
  Ni  Ni15  1  0.87739310  0.09204688  0.96465379  1.0
  Ni  Ni16  1  0.87739310  0.42538021  0.96465379  1.0
  Ni  Ni17  1  0.87739310  0.75871355  0.96465379  1.0
  Ni  Ni18  1  0.26546405  0.31271502  0.96391764  1.0
  Ni  Ni19  1  0.26546405  0.64604836  0.96391764  1.0
  Ni  Ni20  1  0.26546405  0.97938169  0.96391764  1.0
  Ni  Ni21  1  0.59879738  0.31271502  0.96391764  1.0
  Ni  Ni22  1  0.59879738  0.64604836  0.96391764  1.0
  Ni  Ni23  1  0.59879738  0.97938169  0.96391764  1.0
  Ni  Ni24  1  0.93213071  0.31271502  0.96391764  1.0
  Ni  Ni25  1  0.93213071  0.64604836  0.96391764  1.0
  Ni  Ni26  1  0.93213071  0.97938169  0.96391764  1.0
  Ni  Ni27  1  0.07498786  0.05081026  0.89248907  1.0
  Ni  Ni28  1  0.07498786  0.38414360  0.89248907  1.0
  Ni  Ni29  1  0.07498786  0.71747693  0.89248907  1.0
  Ni  Ni30  1  0.40832119  0.05081026  0.89248907  1.0
  Ni  Ni31  1  0.40832119  0.38414360  0.89248907  1.0
  Ni  Ni32  1  0.40832119  0.71747693  0.89248907  1.0
  Ni  Ni33  1  0.74165452  0.05081026  0.89248907  1.0
  Ni  Ni34  1  0.74165452  0.38414360  0.89248907  1.0
  Ni  Ni35  1  0.74165452  0.71747693  0.89248907  1.0
  Ni  Ni36  1  0.30596452  0.30633260  0.75036807  1.0
  Ni  Ni37  1  0.30596452  0.63966593  0.75036807  1.0
  Ni  Ni38  1  0.30596452  0.97299926  0.75036807  1.0
  Ni  Ni39  1  0.63929786  0.30633260  0.75036807  1.0
  Ni  Ni40  1  0.63929786  0.63966593  0.75036807  1.0
  Ni  Ni41  1  0.63929786  0.97299926  0.75036807  1.0
  Ni  Ni42  1  0.97263119  0.30633260  0.75036807  1.0
  Ni  Ni43  1  0.97263119  0.63966593  0.75036807  1.0
  Ni  Ni44  1  0.97263119  0.97299926  0.75036807  1.0
  Ni  Ni45  1  0.16310738  0.23490402  0.82179664  1.0
  Ni  Ni46  1  0.16310738  0.56823736  0.82179664  1.0
  Ni  Ni47  1  0.16310738  0.90157069  0.82179664  1.0
  Ni  Ni48  1  0.49644071  0.23490402  0.82179664  1.0
  Ni  Ni49  1  0.49644071  0.56823736  0.82179664  1.0
  Ni  Ni50  1  0.49644071  0.90157069  0.82179664  1.0
  Ni  Ni51  1  0.82977405  0.23490402  0.82179664  1.0
  Ni  Ni52  1  0.82977405  0.56823736  0.82179664  1.0
  Ni  Ni53  1  0.82977405  0.90157069  0.82179664  1.0
  Ni  Ni54  1  0.21784500  0.12223883  0.82106050  1.0
  Ni  Ni55  1  0.21784500  0.45557217  0.82106050  1.0
  Ni  Ni56  1  0.21784500  0.78890550  0.82106050  1.0
  Ni  Ni57  1  0.55117833  0.12223883  0.82106050  1.0
  Ni  Ni58  1  0.55117833  0.45557217  0.82106050  1.0
  Ni  Ni59  1  0.55117833  0.78890550  0.82106050  1.0
  Ni  Ni60  1  0.88451167  0.12223883  0.82106050  1.0
  Ni  Ni61  1  0.88451167  0.45557217  0.82106050  1.0
  Ni  Ni62  1  0.88451167  0.78890550  0.82106050  1.0
  Ni  Ni63  1  0.02736881  0.19366740  0.74963193  1.0
  Ni  Ni64  1  0.02736881  0.52700074  0.74963193  1.0
  Ni  Ni65  1  0.02736881  0.86033407  0.74963193  1.0
  Ni  Ni66  1  0.36070214  0.19366740  0.74963193  1.0
  Ni  Ni67  1  0.36070214  0.52700074  0.74963193  1.0
  Ni  Ni68  1  0.36070214  0.86033407  0.74963193  1.0
  Ni  Ni69  1  0.69403548  0.19366740  0.74963193  1.0
  Ni  Ni70  1  0.69403548  0.52700074  0.74963193  1.0
  Ni  Ni71  1  0.69403548  0.86033407  0.74963193  1.0
  Ni  Ni72  1  0.25834548  0.11585640  0.60751093  1.0
  Ni  Ni73  1  0.25834548  0.44918974  0.60751093  1.0
  Ni  Ni74  1  0.25834548  0.78252307  0.60751093  1.0
  Ni  Ni75  1  0.59167881  0.11585640  0.60751093  1.0
  Ni  Ni76  1  0.59167881  0.44918974  0.60751093  1.0
  Ni  Ni77  1  0.59167881  0.78252307  0.60751093  1.0
  Ni  Ni78  1  0.92501214  0.11585640  0.60751093  1.0
  Ni  Ni79  1  0.92501214  0.44918974  0.60751093  1.0
  Ni  Ni80  1  0.92501214  0.78252307  0.60751093  1.0
  Ni  Ni81  1  0.11548833  0.04442783  0.67893950  1.0
  Ni  Ni82  1  0.11548833  0.37776117  0.67893950  1.0
  Ni  Ni83  1  0.11548833  0.71109450  0.67893950  1.0
  Ni  Ni84  1  0.44882167  0.04442783  0.67893950  1.0
  Ni  Ni85  1  0.44882167  0.37776117  0.67893950  1.0
  Ni  Ni86  1  0.44882167  0.71109450  0.67893950  1.0
  Ni  Ni87  1  0.78215500  0.04442783  0.67893950  1.0
  Ni  Ni88  1  0.78215500  0.37776117  0.67893950  1.0
  Ni  Ni89  1  0.78215500  0.71109450  0.67893950  1.0
  Ni  Ni90  1  0.17022595  0.26509598  0.67820336  1.0
  Ni  Ni91  1  0.17022595  0.59842931  0.67820336  1.0
  Ni  Ni92  1  0.17022595  0.93176264  0.67820336  1.0
  Ni  Ni93  1  0.50355929  0.26509598  0.67820336  1.0
  Ni  Ni94  1  0.50355929  0.59842931  0.67820336  1.0
  Ni  Ni95  1  0.50355929  0.93176264  0.67820336  1.0
  Ni  Ni96  1  0.83689262  0.26509598  0.67820336  1.0
  Ni  Ni97  1  0.83689262  0.59842931  0.67820336  1.0
  Ni  Ni98  1  0.83689262  0.93176264  0.67820336  1.0
  Ni  Ni99  1  0.31308310  0.00319121  0.60677479  1.0
  Ni  Ni100  1  0.31308310  0.33652455  0.60677479  1.0
  Ni  Ni101  1  0.31308310  0.66985788  0.60677479  1.0
  Ni  Ni102  1  0.64641643  0.00319121  0.60677479  1.0
  Ni  Ni103  1  0.64641643  0.33652455  0.60677479  1.0
  Ni  Ni104  1  0.64641643  0.66985788  0.60677479  1.0
  Ni  Ni105  1  0.97974976  0.00319121  0.60677479  1.0
  Ni  Ni106  1  0.97974976  0.33652455  0.60677479  1.0
  Ni  Ni107  1  0.97974976  0.66985788  0.60677479  1.0
  Ti  Ti108  1  0.08506024  0.28661445  0.95155421  1.0
  Ti  Ti109  1  0.08506024  0.61994779  0.95155421  1.0
  Ti  Ti110  1  0.08506024  0.95328112  0.95155421  1.0
  Ti  Ti111  1  0.41839357  0.28661445  0.95155421  1.0
  Ti  Ti112  1  0.41839357  0.61994779  0.95155421  1.0
  Ti  Ti113  1  0.41839357  0.95328112  0.95155421  1.0
  Ti  Ti114  1  0.75172690  0.28661445  0.95155421  1.0
  Ti  Ti115  1  0.75172690  0.61994779  0.95155421  1.0
  Ti  Ti116  1  0.75172690  0.95328112  0.95155421  1.0
  Ti  Ti117  1  0.22791738  0.02470969  0.88012564  1.0
  Ti  Ti118  1  0.22791738  0.35804302  0.88012564  1.0
  Ti  Ti119  1  0.22791738  0.69137636  0.88012564  1.0
  Ti  Ti120  1  0.56125071  0.02470969  0.88012564  1.0
  Ti  Ti121  1  0.56125071  0.35804302  0.88012564  1.0
  Ti  Ti122  1  0.56125071  0.69137636  0.88012564  1.0
  Ti  Ti123  1  0.89458405  0.02470969  0.88012564  1.0
  Ti  Ti124  1  0.89458405  0.35804302  0.88012564  1.0
  Ti  Ti125  1  0.89458405  0.69137636  0.88012564  1.0
  Ti  Ti126  1  0.20065405  0.18957602  0.90558864  1.0
  Ti  Ti127  1  0.20065405  0.52290936  0.90558864  1.0
  Ti  Ti128  1  0.20065405  0.85624269  0.90558864  1.0
  Ti  Ti129  1  0.53398738  0.18957602  0.90558864  1.0
  Ti  Ti130  1  0.53398738  0.52290936  0.90558864  1.0
  Ti  Ti131  1  0.53398738  0.85624269  0.90558864  1.0
  Ti  Ti132  1  0.86732071  0.18957602  0.90558864  1.0
  Ti  Ti133  1  0.86732071  0.52290936  0.90558864  1.0
  Ti  Ti134  1  0.86732071  0.85624269  0.90558864  1.0
  Ti  Ti135  1  0.05779690  0.11814745  0.97701721  1.0
  Ti  Ti136  1  0.05779690  0.45148079  0.97701721  1.0
  Ti  Ti137  1  0.05779690  0.78481412  0.97701721  1.0
  Ti  Ti138  1  0.39113024  0.11814745  0.97701721  1.0
  Ti  Ti139  1  0.39113024  0.45148079  0.97701721  1.0
  Ti  Ti140  1  0.39113024  0.78481412  0.97701721  1.0
  Ti  Ti141  1  0.72446357  0.11814745  0.97701721  1.0
  Ti  Ti142  1  0.72446357  0.45148079  0.97701721  1.0
  Ti  Ti143  1  0.72446357  0.78481412  0.97701721  1.0
  Ti  Ti144  1  0.03744119  0.09613826  0.80869707  1.0
  Ti  Ti145  1  0.03744119  0.42947160  0.80869707  1.0
  Ti  Ti146  1  0.03744119  0.76280493  0.80869707  1.0
  Ti  Ti147  1  0.37077452  0.09613826  0.80869707  1.0
  Ti  Ti148  1  0.37077452  0.42947160  0.80869707  1.0
  Ti  Ti149  1  0.37077452  0.76280493  0.80869707  1.0
  Ti  Ti150  1  0.70410786  0.09613826  0.80869707  1.0
  Ti  Ti151  1  0.70410786  0.42947160  0.80869707  1.0
  Ti  Ti152  1  0.70410786  0.76280493  0.80869707  1.0
  Ti  Ti153  1  0.18029833  0.16756683  0.73726850  1.0
  Ti  Ti154  1  0.18029833  0.50090017  0.73726850  1.0
  Ti  Ti155  1  0.18029833  0.83423350  0.73726850  1.0
  Ti  Ti156  1  0.51363167  0.16756683  0.73726850  1.0
  Ti  Ti157  1  0.51363167  0.50090017  0.73726850  1.0
  Ti  Ti158  1  0.51363167  0.83423350  0.73726850  1.0
  Ti  Ti159  1  0.84696500  0.16756683  0.73726850  1.0
  Ti  Ti160  1  0.84696500  0.50090017  0.73726850  1.0
  Ti  Ti161  1  0.84696500  0.83423350  0.73726850  1.0
  Ti  Ti162  1  0.15303500  0.33243317  0.76273150  1.0
  Ti  Ti163  1  0.15303500  0.66576650  0.76273150  1.0
  Ti  Ti164  1  0.15303500  0.99909983  0.76273150  1.0
  Ti  Ti165  1  0.48636833  0.33243317  0.76273150  1.0
  Ti  Ti166  1  0.48636833  0.66576650  0.76273150  1.0
  Ti  Ti167  1  0.48636833  0.99909983  0.76273150  1.0
  Ti  Ti168  1  0.81970167  0.33243317  0.76273150  1.0
  Ti  Ti169  1  0.81970167  0.66576650  0.76273150  1.0
  Ti  Ti170  1  0.81970167  0.99909983  0.76273150  1.0
  Ti  Ti171  1  0.01017786  0.26100460  0.83416007  1.0
  Ti  Ti172  1  0.01017786  0.59433793  0.83416007  1.0
  Ti  Ti173  1  0.01017786  0.92767126  0.83416007  1.0
  Ti  Ti174  1  0.34351119  0.26100460  0.83416007  1.0
  Ti  Ti175  1  0.34351119  0.59433793  0.83416007  1.0
  Ti  Ti176  1  0.34351119  0.92767126  0.83416007  1.0
  Ti  Ti177  1  0.67684452  0.26100460  0.83416007  1.0
  Ti  Ti178  1  0.67684452  0.59433793  0.83416007  1.0
  Ti  Ti179  1  0.67684452  0.92767126  0.83416007  1.0
  Ti  Ti180  1  0.32315548  0.23899540  0.66583993  1.0
  Ti  Ti181  1  0.32315548  0.57232874  0.66583993  1.0
  Ti  Ti182  1  0.32315548  0.90566207  0.66583993  1.0
  Ti  Ti183  1  0.65648881  0.23899540  0.66583993  1.0
  Ti  Ti184  1  0.65648881  0.57232874  0.66583993  1.0
  Ti  Ti185  1  0.65648881  0.90566207  0.66583993  1.0
  Ti  Ti186  1  0.98982214  0.23899540  0.66583993  1.0
  Ti  Ti187  1  0.98982214  0.57232874  0.66583993  1.0
  Ti  Ti188  1  0.98982214  0.90566207  0.66583993  1.0
  Ti  Ti189  1  0.13267929  0.31042398  0.59441136  1.0
  Ti  Ti190  1  0.13267929  0.64375731  0.59441136  1.0
  Ti  Ti191  1  0.13267929  0.97709064  0.59441136  1.0
  Ti  Ti192  1  0.46601262  0.31042398  0.59441136  1.0
  Ti  Ti193  1  0.46601262  0.64375731  0.59441136  1.0
  Ti  Ti194  1  0.46601262  0.97709064  0.59441136  1.0
  Ti  Ti195  1  0.79934595  0.31042398  0.59441136  1.0
  Ti  Ti196  1  0.79934595  0.64375731  0.59441136  1.0
  Ti  Ti197  1  0.79934595  0.97709064  0.59441136  1.0
  Ti  Ti198  1  0.10541595  0.14195698  0.61987436  1.0
  Ti  Ti199  1  0.10541595  0.47529031  0.61987436  1.0
  Ti  Ti200  1  0.10541595  0.80862364  0.61987436  1.0
  Ti  Ti201  1  0.43874929  0.14195698  0.61987436  1.0
  Ti  Ti202  1  0.43874929  0.47529031  0.61987436  1.0
  Ti  Ti203  1  0.43874929  0.80862364  0.61987436  1.0
  Ti  Ti204  1  0.77208262  0.14195698  0.61987436  1.0
  Ti  Ti205  1  0.77208262  0.47529031  0.61987436  1.0
  Ti  Ti206  1  0.77208262  0.80862364  0.61987436  1.0
  Ti  Ti207  1  0.29589214  0.07052840  0.69130293  1.0
  Ti  Ti208  1  0.29589214  0.40386174  0.69130293  1.0
  Ti  Ti209  1  0.29589214  0.73719507  0.69130293  1.0
  Ti  Ti210  1  0.62922548  0.07052840  0.69130293  1.0
  Ti  Ti211  1  0.62922548  0.40386174  0.69130293  1.0
  Ti  Ti212  1  0.62922548  0.73719507  0.69130293  1.0
  Ti  Ti213  1  0.96255881  0.07052840  0.69130293  1.0
  Ti  Ti214  1  0.96255881  0.40386174  0.69130293  1.0
  Ti  Ti215  1  0.96255881  0.73719507  0.69130293  1.0
