# generated using pymatgen
data_TiNi
_symmetry_space_group_name_H-M   'P 1'
_cell_length_a   18.74571305
_cell_length_b   19.50865153
_cell_length_c   27.46389202
_cell_angle_alpha   83.58433595
_cell_angle_beta   86.91705283
_cell_angle_gamma   85.01636605
_symmetry_Int_Tables_number   1
_chemical_formula_structural   TiNi
_chemical_formula_sum   'Ti144 Ni144'
_cell_volume   9933.15395334
_cell_formula_units_Z   144
loop_
 _symmetry_equiv_pos_site_id
 _symmetry_equiv_pos_as_xyz
  1  'x, y, z'
loop_
 _atom_site_type_symbol
 _atom_site_label
 _atom_site_symmetry_multiplicity
 _atom_site_fract_x
 _atom_site_fract_y
 _atom_site_fract_z
 _atom_site_occupancy
  Ni  Ni0  1  0.11619295  0.15981538  0.94043365  1.0
  Ni  Ni1  1  0.11619295  0.49314872  0.94043365  1.0
  Ni  Ni2  1  0.11619295  0.82648205  0.94043365  1.0
  Ni  Ni3  1  0.44952628  0.15981538  0.94043365  1.0
  Ni  Ni4  1  0.44952628  0.49314872  0.94043365  1.0
  Ni  Ni5  1  0.44952628  0.82648205  0.94043365  1.0
  Ni  Ni6  1  0.78285962  0.15981538  0.94043365  1.0
  Ni  Ni7  1  0.78285962  0.49314872  0.94043365  1.0
  Ni  Ni8  1  0.78285962  0.82648205  0.94043365  1.0
  Ni  Ni9  1  0.26619295  0.00981538  0.99043365  1.0
  Ni  Ni10  1  0.26619295  0.34314872  0.99043365  1.0
  Ni  Ni11  1  0.26619295  0.67648205  0.99043365  1.0
  Ni  Ni12  1  0.59952628  0.00981538  0.99043365  1.0
  Ni  Ni13  1  0.59952628  0.34314872  0.99043365  1.0
  Ni  Ni14  1  0.59952628  0.67648205  0.99043365  1.0
  Ni  Ni15  1  0.93285962  0.00981538  0.99043365  1.0
  Ni  Ni16  1  0.93285962  0.34314872  0.99043365  1.0
  Ni  Ni17  1  0.93285962  0.67648205  0.99043365  1.0
  Ni  Ni18  1  0.25047372  0.14018462  0.95956635  1.0
  Ni  Ni19  1  0.25047372  0.47351795  0.95956635  1.0
  Ni  Ni20  1  0.25047372  0.80685128  0.95956635  1.0
  Ni  Ni21  1  0.58380705  0.14018462  0.95956635  1.0
  Ni  Ni22  1  0.58380705  0.47351795  0.95956635  1.0
  Ni  Ni23  1  0.58380705  0.80685128  0.95956635  1.0
  Ni  Ni24  1  0.91714038  0.14018462  0.95956635  1.0
  Ni  Ni25  1  0.91714038  0.47351795  0.95956635  1.0
  Ni  Ni26  1  0.91714038  0.80685128  0.95956635  1.0
  Ni  Ni27  1  0.10047372  0.29018462  0.90956635  1.0
  Ni  Ni28  1  0.10047372  0.62351795  0.90956635  1.0
  Ni  Ni29  1  0.10047372  0.95685128  0.90956635  1.0
  Ni  Ni30  1  0.43380705  0.29018462  0.90956635  1.0
  Ni  Ni31  1  0.43380705  0.62351795  0.90956635  1.0
  Ni  Ni32  1  0.43380705  0.95685128  0.90956635  1.0
  Ni  Ni33  1  0.76714038  0.29018462  0.90956635  1.0
  Ni  Ni34  1  0.76714038  0.62351795  0.90956635  1.0
  Ni  Ni35  1  0.76714038  0.95685128  0.90956635  1.0
  Ni  Ni36  1  0.14952628  0.12648205  0.84043365  1.0
  Ni  Ni37  1  0.14952628  0.45981538  0.84043365  1.0
  Ni  Ni38  1  0.14952628  0.79314872  0.84043365  1.0
  Ni  Ni39  1  0.48285962  0.12648205  0.84043365  1.0
  Ni  Ni40  1  0.48285962  0.45981538  0.84043365  1.0
  Ni  Ni41  1  0.48285962  0.79314872  0.84043365  1.0
  Ni  Ni42  1  0.81619295  0.12648205  0.84043365  1.0
  Ni  Ni43  1  0.81619295  0.45981538  0.84043365  1.0
  Ni  Ni44  1  0.81619295  0.79314872  0.84043365  1.0
  Ni  Ni45  1  0.29952628  0.30981538  0.89043365  1.0
  Ni  Ni46  1  0.29952628  0.64314872  0.89043365  1.0
  Ni  Ni47  1  0.29952628  0.97648205  0.89043365  1.0
  Ni  Ni48  1  0.63285962  0.30981538  0.89043365  1.0
  Ni  Ni49  1  0.63285962  0.64314872  0.89043365  1.0
  Ni  Ni50  1  0.63285962  0.97648205  0.89043365  1.0
  Ni  Ni51  1  0.96619295  0.30981538  0.89043365  1.0
  Ni  Ni52  1  0.96619295  0.64314872  0.89043365  1.0
  Ni  Ni53  1  0.96619295  0.97648205  0.89043365  1.0
  Ni  Ni54  1  0.28380705  0.10685128  0.85956635  1.0
  Ni  Ni55  1  0.28380705  0.44018462  0.85956635  1.0
  Ni  Ni56  1  0.28380705  0.77351795  0.85956635  1.0
  Ni  Ni57  1  0.61714038  0.10685128  0.85956635  1.0
  Ni  Ni58  1  0.61714038  0.44018462  0.85956635  1.0
  Ni  Ni59  1  0.61714038  0.77351795  0.85956635  1.0
  Ni  Ni60  1  0.95047372  0.10685128  0.85956635  1.0
  Ni  Ni61  1  0.95047372  0.44018462  0.85956635  1.0
  Ni  Ni62  1  0.95047372  0.77351795  0.85956635  1.0
  Ni  Ni63  1  0.13380705  0.25685128  0.80956635  1.0
  Ni  Ni64  1  0.13380705  0.59018462  0.80956635  1.0
  Ni  Ni65  1  0.13380705  0.92351795  0.80956635  1.0
  Ni  Ni66  1  0.46714038  0.25685128  0.80956635  1.0
  Ni  Ni67  1  0.46714038  0.59018462  0.80956635  1.0
  Ni  Ni68  1  0.46714038  0.92351795  0.80956635  1.0
  Ni  Ni69  1  0.80047372  0.25685128  0.80956635  1.0
  Ni  Ni70  1  0.80047372  0.59018462  0.80956635  1.0
  Ni  Ni71  1  0.80047372  0.92351795  0.80956635  1.0
  Ni  Ni72  1  0.18285962  0.09314872  0.74043365  1.0
  Ni  Ni73  1  0.18285962  0.42648205  0.74043365  1.0
  Ni  Ni74  1  0.18285962  0.75981538  0.74043365  1.0
  Ni  Ni75  1  0.51619295  0.09314872  0.74043365  1.0
  Ni  Ni76  1  0.51619295  0.42648205  0.74043365  1.0
  Ni  Ni77  1  0.51619295  0.75981538  0.74043365  1.0
  Ni  Ni78  1  0.84952628  0.09314872  0.74043365  1.0
  Ni  Ni79  1  0.84952628  0.42648205  0.74043365  1.0
  Ni  Ni80  1  0.84952628  0.75981538  0.74043365  1.0
  Ni  Ni81  1  0.33285962  0.27648205  0.79043365  1.0
  Ni  Ni82  1  0.33285962  0.60981538  0.79043365  1.0
  Ni  Ni83  1  0.33285962  0.94314872  0.79043365  1.0
  Ni  Ni84  1  0.66619295  0.27648205  0.79043365  1.0
  Ni  Ni85  1  0.66619295  0.60981538  0.79043365  1.0
  Ni  Ni86  1  0.66619295  0.94314872  0.79043365  1.0
  Ni  Ni87  1  0.99952628  0.27648205  0.79043365  1.0
  Ni  Ni88  1  0.99952628  0.60981538  0.79043365  1.0
  Ni  Ni89  1  0.99952628  0.94314872  0.79043365  1.0
  Ni  Ni90  1  0.31714038  0.07351795  0.75956635  1.0
  Ni  Ni91  1  0.31714038  0.40685128  0.75956635  1.0
  Ni  Ni92  1  0.31714038  0.74018462  0.75956635  1.0
  Ni  Ni93  1  0.65047372  0.07351795  0.75956635  1.0
  Ni  Ni94  1  0.65047372  0.40685128  0.75956635  1.0
  Ni  Ni95  1  0.65047372  0.74018462  0.75956635  1.0
  Ni  Ni96  1  0.98380705  0.07351795  0.75956635  1.0
  Ni  Ni97  1  0.98380705  0.40685128  0.75956635  1.0
  Ni  Ni98  1  0.98380705  0.74018462  0.75956635  1.0
  Ni  Ni99  1  0.16714038  0.22351795  0.70956635  1.0
  Ni  Ni100  1  0.16714038  0.55685128  0.70956635  1.0
  Ni  Ni101  1  0.16714038  0.89018462  0.70956635  1.0
  Ni  Ni102  1  0.50047372  0.22351795  0.70956635  1.0
  Ni  Ni103  1  0.50047372  0.55685128  0.70956635  1.0
  Ni  Ni104  1  0.50047372  0.89018462  0.70956635  1.0
  Ni  Ni105  1  0.83380705  0.22351795  0.70956635  1.0
  Ni  Ni106  1  0.83380705  0.55685128  0.70956635  1.0
  Ni  Ni107  1  0.83380705  0.89018462  0.70956635  1.0
  Ni  Ni108  1  0.21619295  0.05981538  0.64043365  1.0
  Ni  Ni109  1  0.21619295  0.39314872  0.64043365  1.0
  Ni  Ni110  1  0.21619295  0.72648205  0.64043365  1.0
  Ni  Ni111  1  0.54952628  0.05981538  0.64043365  1.0
  Ni  Ni112  1  0.54952628  0.39314872  0.64043365  1.0
  Ni  Ni113  1  0.54952628  0.72648205  0.64043365  1.0
  Ni  Ni114  1  0.88285962  0.05981538  0.64043365  1.0
  Ni  Ni115  1  0.88285962  0.39314872  0.64043365  1.0
  Ni  Ni116  1  0.88285962  0.72648205  0.64043365  1.0
  Ni  Ni117  1  0.03285962  0.24314872  0.69043365  1.0
  Ni  Ni118  1  0.03285962  0.57648205  0.69043365  1.0
  Ni  Ni119  1  0.03285962  0.90981538  0.69043365  1.0
  Ni  Ni120  1  0.36619295  0.24314872  0.69043365  1.0
  Ni  Ni121  1  0.36619295  0.57648205  0.69043365  1.0
  Ni  Ni122  1  0.36619295  0.90981538  0.69043365  1.0
  Ni  Ni123  1  0.69952628  0.24314872  0.69043365  1.0
  Ni  Ni124  1  0.69952628  0.57648205  0.69043365  1.0
  Ni  Ni125  1  0.69952628  0.90981538  0.69043365  1.0
  Ni  Ni126  1  0.01714038  0.04018462  0.65956635  1.0
  Ni  Ni127  1  0.01714038  0.37351795  0.65956635  1.0
  Ni  Ni128  1  0.01714038  0.70685128  0.65956635  1.0
  Ni  Ni129  1  0.35047372  0.04018462  0.65956635  1.0
  Ni  Ni130  1  0.35047372  0.37351795  0.65956635  1.0
  Ni  Ni131  1  0.35047372  0.70685128  0.65956635  1.0
  Ni  Ni132  1  0.68380705  0.04018462  0.65956635  1.0
  Ni  Ni133  1  0.68380705  0.37351795  0.65956635  1.0
  Ni  Ni134  1  0.68380705  0.70685128  0.65956635  1.0
  Ni  Ni135  1  0.20047372  0.19018462  0.60956635  1.0
  Ni  Ni136  1  0.20047372  0.52351795  0.60956635  1.0
  Ni  Ni137  1  0.20047372  0.85685128  0.60956635  1.0
  Ni  Ni138  1  0.53380705  0.19018462  0.60956635  1.0
  Ni  Ni139  1  0.53380705  0.52351795  0.60956635  1.0
  Ni  Ni140  1  0.53380705  0.85685128  0.60956635  1.0
  Ni  Ni141  1  0.86714038  0.19018462  0.60956635  1.0
  Ni  Ni142  1  0.86714038  0.52351795  0.60956635  1.0
  Ni  Ni143  1  0.86714038  0.85685128  0.60956635  1.0
  Ti  Ti144  1  0.02787157  0.06701510  0.93371530  1.0
  Ti  Ti145  1  0.02787157  0.40034843  0.93371530  1.0
  Ti  Ti146  1  0.02787157  0.73368177  0.93371530  1.0
  Ti  Ti147  1  0.36120490  0.06701510  0.93371530  1.0
  Ti  Ti148  1  0.36120490  0.40034843  0.93371530  1.0
  Ti  Ti149  1  0.36120490  0.73368177  0.93371530  1.0
  Ti  Ti150  1  0.69453823  0.06701510  0.93371530  1.0
  Ti  Ti151  1  0.69453823  0.40034843  0.93371530  1.0
  Ti  Ti152  1  0.69453823  0.73368177  0.93371530  1.0
  Ti  Ti153  1  0.17787157  0.25034843  0.98371530  1.0
  Ti  Ti154  1  0.17787157  0.58368177  0.98371530  1.0
  Ti  Ti155  1  0.17787157  0.91701510  0.98371530  1.0
  Ti  Ti156  1  0.51120490  0.25034843  0.98371530  1.0
  Ti  Ti157  1  0.51120490  0.58368177  0.98371530  1.0
  Ti  Ti158  1  0.51120490  0.91701510  0.98371530  1.0
  Ti  Ti159  1  0.84453823  0.25034843  0.98371530  1.0
  Ti  Ti160  1  0.84453823  0.58368177  0.98371530  1.0
  Ti  Ti161  1  0.84453823  0.91701510  0.98371530  1.0
  Ti  Ti162  1  0.00546177  0.23298490  0.96628470  1.0
  Ti  Ti163  1  0.00546177  0.56631823  0.96628470  1.0
  Ti  Ti164  1  0.00546177  0.89965157  0.96628470  1.0
  Ti  Ti165  1  0.33879510  0.23298490  0.96628470  1.0
  Ti  Ti166  1  0.33879510  0.56631823  0.96628470  1.0
  Ti  Ti167  1  0.33879510  0.89965157  0.96628470  1.0
  Ti  Ti168  1  0.67212843  0.23298490  0.96628470  1.0
  Ti  Ti169  1  0.67212843  0.56631823  0.96628470  1.0
  Ti  Ti170  1  0.67212843  0.89965157  0.96628470  1.0
  Ti  Ti171  1  0.18879510  0.04965157  0.91628470  1.0
  Ti  Ti172  1  0.18879510  0.38298490  0.91628470  1.0
  Ti  Ti173  1  0.18879510  0.71631823  0.91628470  1.0
  Ti  Ti174  1  0.52212843  0.04965157  0.91628470  1.0
  Ti  Ti175  1  0.52212843  0.38298490  0.91628470  1.0
  Ti  Ti176  1  0.52212843  0.71631823  0.91628470  1.0
  Ti  Ti177  1  0.85546177  0.04965157  0.91628470  1.0
  Ti  Ti178  1  0.85546177  0.38298490  0.91628470  1.0
  Ti  Ti179  1  0.85546177  0.71631823  0.91628470  1.0
  Ti  Ti180  1  0.06120490  0.03368177  0.83371530  1.0
  Ti  Ti181  1  0.06120490  0.36701510  0.83371530  1.0
  Ti  Ti182  1  0.06120490  0.70034843  0.83371530  1.0
  Ti  Ti183  1  0.39453823  0.03368177  0.83371530  1.0
  Ti  Ti184  1  0.39453823  0.36701510  0.83371530  1.0
  Ti  Ti185  1  0.39453823  0.70034843  0.83371530  1.0
  Ti  Ti186  1  0.72787157  0.03368177  0.83371530  1.0
  Ti  Ti187  1  0.72787157  0.36701510  0.83371530  1.0
  Ti  Ti188  1  0.72787157  0.70034843  0.83371530  1.0
  Ti  Ti189  1  0.21120490  0.21701510  0.88371530  1.0
  Ti  Ti190  1  0.21120490  0.55034843  0.88371530  1.0
  Ti  Ti191  1  0.21120490  0.88368177  0.88371530  1.0
  Ti  Ti192  1  0.54453823  0.21701510  0.88371530  1.0
  Ti  Ti193  1  0.54453823  0.55034843  0.88371530  1.0
  Ti  Ti194  1  0.54453823  0.88368177  0.88371530  1.0
  Ti  Ti195  1  0.87787157  0.21701510  0.88371530  1.0
  Ti  Ti196  1  0.87787157  0.55034843  0.88371530  1.0
  Ti  Ti197  1  0.87787157  0.88368177  0.88371530  1.0
  Ti  Ti198  1  0.03879510  0.19965157  0.86628470  1.0
  Ti  Ti199  1  0.03879510  0.53298490  0.86628470  1.0
  Ti  Ti200  1  0.03879510  0.86631823  0.86628470  1.0
  Ti  Ti201  1  0.37212843  0.19965157  0.86628470  1.0
  Ti  Ti202  1  0.37212843  0.53298490  0.86628470  1.0
  Ti  Ti203  1  0.37212843  0.86631823  0.86628470  1.0
  Ti  Ti204  1  0.70546177  0.19965157  0.86628470  1.0
  Ti  Ti205  1  0.70546177  0.53298490  0.86628470  1.0
  Ti  Ti206  1  0.70546177  0.86631823  0.86628470  1.0
  Ti  Ti207  1  0.22212843  0.01631823  0.81628470  1.0
  Ti  Ti208  1  0.22212843  0.34965157  0.81628470  1.0
  Ti  Ti209  1  0.22212843  0.68298490  0.81628470  1.0
  Ti  Ti210  1  0.55546177  0.01631823  0.81628470  1.0
  Ti  Ti211  1  0.55546177  0.34965157  0.81628470  1.0
  Ti  Ti212  1  0.55546177  0.68298490  0.81628470  1.0
  Ti  Ti213  1  0.88879510  0.01631823  0.81628470  1.0
  Ti  Ti214  1  0.88879510  0.34965157  0.81628470  1.0
  Ti  Ti215  1  0.88879510  0.68298490  0.81628470  1.0
  Ti  Ti216  1  0.09453823  0.00034843  0.73371530  1.0
  Ti  Ti217  1  0.09453823  0.33368177  0.73371530  1.0
  Ti  Ti218  1  0.09453823  0.66701510  0.73371530  1.0
  Ti  Ti219  1  0.42787157  0.00034843  0.73371530  1.0
  Ti  Ti220  1  0.42787157  0.33368177  0.73371530  1.0
  Ti  Ti221  1  0.42787157  0.66701510  0.73371530  1.0
  Ti  Ti222  1  0.76120490  0.00034843  0.73371530  1.0
  Ti  Ti223  1  0.76120490  0.33368177  0.73371530  1.0
  Ti  Ti224  1  0.76120490  0.66701510  0.73371530  1.0
  Ti  Ti225  1  0.24453823  0.18368177  0.78371530  1.0
  Ti  Ti226  1  0.24453823  0.51701510  0.78371530  1.0
  Ti  Ti227  1  0.24453823  0.85034843  0.78371530  1.0
  Ti  Ti228  1  0.57787157  0.18368177  0.78371530  1.0
  Ti  Ti229  1  0.57787157  0.51701510  0.78371530  1.0
  Ti  Ti230  1  0.57787157  0.85034843  0.78371530  1.0
  Ti  Ti231  1  0.91120490  0.18368177  0.78371530  1.0
  Ti  Ti232  1  0.91120490  0.51701510  0.78371530  1.0
  Ti  Ti233  1  0.91120490  0.85034843  0.78371530  1.0
  Ti  Ti234  1  0.07212843  0.16631823  0.76628470  1.0
  Ti  Ti235  1  0.07212843  0.49965157  0.76628470  1.0
  Ti  Ti236  1  0.07212843  0.83298490  0.76628470  1.0
  Ti  Ti237  1  0.40546177  0.16631823  0.76628470  1.0
  Ti  Ti238  1  0.40546177  0.49965157  0.76628470  1.0
  Ti  Ti239  1  0.40546177  0.83298490  0.76628470  1.0
  Ti  Ti240  1  0.73879510  0.16631823  0.76628470  1.0
  Ti  Ti241  1  0.73879510  0.49965157  0.76628470  1.0
  Ti  Ti242  1  0.73879510  0.83298490  0.76628470  1.0
  Ti  Ti243  1  0.25546177  0.31631823  0.71628470  1.0
  Ti  Ti244  1  0.25546177  0.64965157  0.71628470  1.0
  Ti  Ti245  1  0.25546177  0.98298490  0.71628470  1.0
  Ti  Ti246  1  0.58879510  0.31631823  0.71628470  1.0
  Ti  Ti247  1  0.58879510  0.64965157  0.71628470  1.0
  Ti  Ti248  1  0.58879510  0.98298490  0.71628470  1.0
  Ti  Ti249  1  0.92212843  0.31631823  0.71628470  1.0
  Ti  Ti250  1  0.92212843  0.64965157  0.71628470  1.0
  Ti  Ti251  1  0.92212843  0.98298490  0.71628470  1.0
  Ti  Ti252  1  0.12787157  0.30034843  0.63371530  1.0
  Ti  Ti253  1  0.12787157  0.63368177  0.63371530  1.0
  Ti  Ti254  1  0.12787157  0.96701510  0.63371530  1.0
  Ti  Ti255  1  0.46120490  0.30034843  0.63371530  1.0
  Ti  Ti256  1  0.46120490  0.63368177  0.63371530  1.0
  Ti  Ti257  1  0.46120490  0.96701510  0.63371530  1.0
  Ti  Ti258  1  0.79453823  0.30034843  0.63371530  1.0
  Ti  Ti259  1  0.79453823  0.63368177  0.63371530  1.0
  Ti  Ti260  1  0.79453823  0.96701510  0.63371530  1.0
  Ti  Ti261  1  0.27787157  0.15034843  0.68371530  1.0
  Ti  Ti262  1  0.27787157  0.48368177  0.68371530  1.0
  Ti  Ti263  1  0.27787157  0.81701510  0.68371530  1.0
  Ti  Ti264  1  0.61120490  0.15034843  0.68371530  1.0
  Ti  Ti265  1  0.61120490  0.48368177  0.68371530  1.0
  Ti  Ti266  1  0.61120490  0.81701510  0.68371530  1.0
  Ti  Ti267  1  0.94453823  0.15034843  0.68371530  1.0
  Ti  Ti268  1  0.94453823  0.48368177  0.68371530  1.0
  Ti  Ti269  1  0.94453823  0.81701510  0.68371530  1.0
  Ti  Ti270  1  0.10546177  0.13298490  0.66628470  1.0
  Ti  Ti271  1  0.10546177  0.46631823  0.66628470  1.0
  Ti  Ti272  1  0.10546177  0.79965157  0.66628470  1.0
  Ti  Ti273  1  0.43879510  0.13298490  0.66628470  1.0
  Ti  Ti274  1  0.43879510  0.46631823  0.66628470  1.0
  Ti  Ti275  1  0.43879510  0.79965157  0.66628470  1.0
  Ti  Ti276  1  0.77212843  0.13298490  0.66628470  1.0
  Ti  Ti277  1  0.77212843  0.46631823  0.66628470  1.0
  Ti  Ti278  1  0.77212843  0.79965157  0.66628470  1.0
  Ti  Ti279  1  0.28879510  0.28298490  0.61628470  1.0
  Ti  Ti280  1  0.28879510  0.61631823  0.61628470  1.0
  Ti  Ti281  1  0.28879510  0.94965157  0.61628470  1.0
  Ti  Ti282  1  0.62212843  0.28298490  0.61628470  1.0
  Ti  Ti283  1  0.62212843  0.61631823  0.61628470  1.0
  Ti  Ti284  1  0.62212843  0.94965157  0.61628470  1.0
  Ti  Ti285  1  0.95546177  0.28298490  0.61628470  1.0
  Ti  Ti286  1  0.95546177  0.61631823  0.61628470  1.0
  Ti  Ti287  1  0.95546177  0.94965157  0.61628470  1.0
