# generated using pymatgen
data_TiNi
_symmetry_space_group_name_H-M   'P 1'
_cell_length_a   38.37905571
_cell_length_b   16.89856627
_cell_length_c   32.87818800
_cell_angle_alpha   123.94564255
_cell_angle_beta   90.09492109
_cell_angle_gamma   89.94891634
_symmetry_Int_Tables_number   1
_chemical_formula_structural   TiNi
_chemical_formula_sum   'Ti270 Ni270'
_cell_volume   17688.99928119
_cell_formula_units_Z   270
loop_
 _symmetry_equiv_pos_site_id
 _symmetry_equiv_pos_as_xyz
  1  'x, y, z'
loop_
 _atom_site_type_symbol
 _atom_site_label
 _atom_site_symmetry_multiplicity
 _atom_site_fract_x
 _atom_site_fract_y
 _atom_site_fract_z
 _atom_site_occupancy
  Ti  Ti0  1  0.30586133  0.06757633  0.01040542  1.0
  Ti  Ti1  1  0.30586133  0.40090967  0.01040542  1.0
  Ti  Ti2  1  0.30586133  0.73424300  0.01040542  1.0
  Ti  Ti3  1  0.63919467  0.06757633  0.01040542  1.0
  Ti  Ti4  1  0.63919467  0.40090967  0.01040542  1.0
  Ti  Ti5  1  0.63919467  0.73424300  0.01040542  1.0
  Ti  Ti6  1  0.97252800  0.06757633  0.01040542  1.0
  Ti  Ti7  1  0.97252800  0.40090967  0.01040542  1.0
  Ti  Ti8  1  0.97252800  0.73424300  0.01040542  1.0
  Ti  Ti9  1  0.02747200  0.26575700  0.07292792  1.0
  Ti  Ti10  1  0.02747200  0.59909033  0.07292792  1.0
  Ti  Ti11  1  0.02747200  0.93242367  0.07292792  1.0
  Ti  Ti12  1  0.36080533  0.26575700  0.07292792  1.0
  Ti  Ti13  1  0.36080533  0.59909033  0.07292792  1.0
  Ti  Ti14  1  0.36080533  0.93242367  0.07292792  1.0
  Ti  Ti15  1  0.69413867  0.26575700  0.07292792  1.0
  Ti  Ti16  1  0.69413867  0.59909033  0.07292792  1.0
  Ti  Ti17  1  0.69413867  0.93242367  0.07292792  1.0
  Ti  Ti18  1  0.24960533  0.25859000  0.06639583  1.0
  Ti  Ti19  1  0.24960533  0.59192333  0.06639583  1.0
  Ti  Ti20  1  0.24960533  0.92525667  0.06639583  1.0
  Ti  Ti21  1  0.58293867  0.25859000  0.06639583  1.0
  Ti  Ti22  1  0.58293867  0.59192333  0.06639583  1.0
  Ti  Ti23  1  0.58293867  0.92525667  0.06639583  1.0
  Ti  Ti24  1  0.91627200  0.25859000  0.06639583  1.0
  Ti  Ti25  1  0.91627200  0.59192333  0.06639583  1.0
  Ti  Ti26  1  0.91627200  0.92525667  0.06639583  1.0
  Ti  Ti27  1  0.13830333  0.26836800  0.07490392  1.0
  Ti  Ti28  1  0.13830333  0.60170133  0.07490392  1.0
  Ti  Ti29  1  0.13830333  0.93503467  0.07490392  1.0
  Ti  Ti30  1  0.47163667  0.26836800  0.07490392  1.0
  Ti  Ti31  1  0.47163667  0.60170133  0.07490392  1.0
  Ti  Ti32  1  0.47163667  0.93503467  0.07490392  1.0
  Ti  Ti33  1  0.80497000  0.26836800  0.07490392  1.0
  Ti  Ti34  1  0.80497000  0.60170133  0.07490392  1.0
  Ti  Ti35  1  0.80497000  0.93503467  0.07490392  1.0
  Ti  Ti36  1  0.19503000  0.06496533  0.00842942  1.0
  Ti  Ti37  1  0.19503000  0.39829867  0.00842942  1.0
  Ti  Ti38  1  0.19503000  0.73163200  0.00842942  1.0
  Ti  Ti39  1  0.52836333  0.06496533  0.00842942  1.0
  Ti  Ti40  1  0.52836333  0.39829867  0.00842942  1.0
  Ti  Ti41  1  0.52836333  0.73163200  0.00842942  1.0
  Ti  Ti42  1  0.86169667  0.06496533  0.00842942  1.0
  Ti  Ti43  1  0.86169667  0.39829867  0.00842942  1.0
  Ti  Ti44  1  0.86169667  0.73163200  0.00842942  1.0
  Ti  Ti45  1  0.08372800  0.07474333  0.01693750  1.0
  Ti  Ti46  1  0.08372800  0.40807667  0.01693750  1.0
  Ti  Ti47  1  0.08372800  0.74141000  0.01693750  1.0
  Ti  Ti48  1  0.41706133  0.07474333  0.01693750  1.0
  Ti  Ti49  1  0.41706133  0.40807667  0.01693750  1.0
  Ti  Ti50  1  0.41706133  0.74141000  0.01693750  1.0
  Ti  Ti51  1  0.75039467  0.07474333  0.01693750  1.0
  Ti  Ti52  1  0.75039467  0.40807667  0.01693750  1.0
  Ti  Ti53  1  0.75039467  0.74141000  0.01693750  1.0
  Ni  Ni54  1  0.02827567  0.10905400  0.06953192  1.0
  Ni  Ni55  1  0.02827567  0.44238733  0.06953192  1.0
  Ni  Ni56  1  0.02827567  0.77572067  0.06953192  1.0
  Ni  Ni57  1  0.36160900  0.10905400  0.06953192  1.0
  Ni  Ni58  1  0.36160900  0.44238733  0.06953192  1.0
  Ni  Ni59  1  0.36160900  0.77572067  0.06953192  1.0
  Ni  Ni60  1  0.69494233  0.10905400  0.06953192  1.0
  Ni  Ni61  1  0.69494233  0.44238733  0.06953192  1.0
  Ni  Ni62  1  0.69494233  0.77572067  0.06953192  1.0
  Ni  Ni63  1  0.13923267  0.11131233  0.07045925  1.0
  Ni  Ni64  1  0.13923267  0.44464567  0.07045925  1.0
  Ni  Ni65  1  0.13923267  0.77797900  0.07045925  1.0
  Ni  Ni66  1  0.47256600  0.11131233  0.07045925  1.0
  Ni  Ni67  1  0.47256600  0.44464567  0.07045925  1.0
  Ni  Ni68  1  0.47256600  0.77797900  0.07045925  1.0
  Ni  Ni69  1  0.80589933  0.11131233  0.07045925  1.0
  Ni  Ni70  1  0.80589933  0.44464567  0.07045925  1.0
  Ni  Ni71  1  0.80589933  0.77797900  0.07045925  1.0
  Ni  Ni72  1  0.25080033  0.10355333  0.06307417  1.0
  Ni  Ni73  1  0.25080033  0.43688667  0.06307417  1.0
  Ni  Ni74  1  0.25080033  0.77022000  0.06307417  1.0
  Ni  Ni75  1  0.58413367  0.10355333  0.06307417  1.0
  Ni  Ni76  1  0.58413367  0.43688667  0.06307417  1.0
  Ni  Ni77  1  0.58413367  0.77022000  0.06307417  1.0
  Ni  Ni78  1  0.91746700  0.10355333  0.06307417  1.0
  Ni  Ni79  1  0.91746700  0.43688667  0.06307417  1.0
  Ni  Ni80  1  0.91746700  0.77022000  0.06307417  1.0
  Ni  Ni81  1  0.30505767  0.22427933  0.01380142  1.0
  Ni  Ni82  1  0.30505767  0.55761267  0.01380142  1.0
  Ni  Ni83  1  0.30505767  0.89094600  0.01380142  1.0
  Ni  Ni84  1  0.63839100  0.22427933  0.01380142  1.0
  Ni  Ni85  1  0.63839100  0.55761267  0.01380142  1.0
  Ni  Ni86  1  0.63839100  0.89094600  0.01380142  1.0
  Ni  Ni87  1  0.97172433  0.22427933  0.01380142  1.0
  Ni  Ni88  1  0.97172433  0.55761267  0.01380142  1.0
  Ni  Ni89  1  0.97172433  0.89094600  0.01380142  1.0
  Ni  Ni90  1  0.19410067  0.22202100  0.01287408  1.0
  Ni  Ni91  1  0.19410067  0.55535433  0.01287408  1.0
  Ni  Ni92  1  0.19410067  0.88868767  0.01287408  1.0
  Ni  Ni93  1  0.52743400  0.22202100  0.01287408  1.0
  Ni  Ni94  1  0.52743400  0.55535433  0.01287408  1.0
  Ni  Ni95  1  0.52743400  0.88868767  0.01287408  1.0
  Ni  Ni96  1  0.86076733  0.22202100  0.01287408  1.0
  Ni  Ni97  1  0.86076733  0.55535433  0.01287408  1.0
  Ni  Ni98  1  0.86076733  0.88868767  0.01287408  1.0
  Ni  Ni99  1  0.08253300  0.22978000  0.02025917  1.0
  Ni  Ni100  1  0.08253300  0.56311333  0.02025917  1.0
  Ni  Ni101  1  0.08253300  0.89644667  0.02025917  1.0
  Ni  Ni102  1  0.41586633  0.22978000  0.02025917  1.0
  Ni  Ni103  1  0.41586633  0.56311333  0.02025917  1.0
  Ni  Ni104  1  0.41586633  0.89644667  0.02025917  1.0
  Ni  Ni105  1  0.74919967  0.22978000  0.02025917  1.0
  Ni  Ni106  1  0.74919967  0.56311333  0.02025917  1.0
  Ni  Ni107  1  0.74919967  0.89644667  0.02025917  1.0
  Ti  Ti108  1  0.30586133  0.06757633  0.09373875  1.0
  Ti  Ti109  1  0.30586133  0.40090967  0.09373875  1.0
  Ti  Ti110  1  0.30586133  0.73424300  0.09373875  1.0
  Ti  Ti111  1  0.63919467  0.06757633  0.09373875  1.0
  Ti  Ti112  1  0.63919467  0.40090967  0.09373875  1.0
  Ti  Ti113  1  0.63919467  0.73424300  0.09373875  1.0
  Ti  Ti114  1  0.97252800  0.06757633  0.09373875  1.0
  Ti  Ti115  1  0.97252800  0.40090967  0.09373875  1.0
  Ti  Ti116  1  0.97252800  0.73424300  0.09373875  1.0
  Ti  Ti117  1  0.02747200  0.26575700  0.15626125  1.0
  Ti  Ti118  1  0.02747200  0.59909033  0.15626125  1.0
  Ti  Ti119  1  0.02747200  0.93242367  0.15626125  1.0
  Ti  Ti120  1  0.36080533  0.26575700  0.15626125  1.0
  Ti  Ti121  1  0.36080533  0.59909033  0.15626125  1.0
  Ti  Ti122  1  0.36080533  0.93242367  0.15626125  1.0
  Ti  Ti123  1  0.69413867  0.26575700  0.15626125  1.0
  Ti  Ti124  1  0.69413867  0.59909033  0.15626125  1.0
  Ti  Ti125  1  0.69413867  0.93242367  0.15626125  1.0
  Ti  Ti126  1  0.24960533  0.25859000  0.14972917  1.0
  Ti  Ti127  1  0.24960533  0.59192333  0.14972917  1.0
  Ti  Ti128  1  0.24960533  0.92525667  0.14972917  1.0
  Ti  Ti129  1  0.58293867  0.25859000  0.14972917  1.0
  Ti  Ti130  1  0.58293867  0.59192333  0.14972917  1.0
  Ti  Ti131  1  0.58293867  0.92525667  0.14972917  1.0
  Ti  Ti132  1  0.91627200  0.25859000  0.14972917  1.0
  Ti  Ti133  1  0.91627200  0.59192333  0.14972917  1.0
  Ti  Ti134  1  0.91627200  0.92525667  0.14972917  1.0
  Ti  Ti135  1  0.13830333  0.26836800  0.15823725  1.0
  Ti  Ti136  1  0.13830333  0.60170133  0.15823725  1.0
  Ti  Ti137  1  0.13830333  0.93503467  0.15823725  1.0
  Ti  Ti138  1  0.47163667  0.26836800  0.15823725  1.0
  Ti  Ti139  1  0.47163667  0.60170133  0.15823725  1.0
  Ti  Ti140  1  0.47163667  0.93503467  0.15823725  1.0
  Ti  Ti141  1  0.80497000  0.26836800  0.15823725  1.0
  Ti  Ti142  1  0.80497000  0.60170133  0.15823725  1.0
  Ti  Ti143  1  0.80497000  0.93503467  0.15823725  1.0
  Ti  Ti144  1  0.19503000  0.06496533  0.09176275  1.0
  Ti  Ti145  1  0.19503000  0.39829867  0.09176275  1.0
  Ti  Ti146  1  0.19503000  0.73163200  0.09176275  1.0
  Ti  Ti147  1  0.52836333  0.06496533  0.09176275  1.0
  Ti  Ti148  1  0.52836333  0.39829867  0.09176275  1.0
  Ti  Ti149  1  0.52836333  0.73163200  0.09176275  1.0
  Ti  Ti150  1  0.86169667  0.06496533  0.09176275  1.0
  Ti  Ti151  1  0.86169667  0.39829867  0.09176275  1.0
  Ti  Ti152  1  0.86169667  0.73163200  0.09176275  1.0
  Ti  Ti153  1  0.08372800  0.07474333  0.10027083  1.0
  Ti  Ti154  1  0.08372800  0.40807667  0.10027083  1.0
  Ti  Ti155  1  0.08372800  0.74141000  0.10027083  1.0
  Ti  Ti156  1  0.41706133  0.07474333  0.10027083  1.0
  Ti  Ti157  1  0.41706133  0.40807667  0.10027083  1.0
  Ti  Ti158  1  0.41706133  0.74141000  0.10027083  1.0
  Ti  Ti159  1  0.75039467  0.07474333  0.10027083  1.0
  Ti  Ti160  1  0.75039467  0.40807667  0.10027083  1.0
  Ti  Ti161  1  0.75039467  0.74141000  0.10027083  1.0
  Ni  Ni162  1  0.02827567  0.10905400  0.15286525  1.0
  Ni  Ni163  1  0.02827567  0.44238733  0.15286525  1.0
  Ni  Ni164  1  0.02827567  0.77572067  0.15286525  1.0
  Ni  Ni165  1  0.36160900  0.10905400  0.15286525  1.0
  Ni  Ni166  1  0.36160900  0.44238733  0.15286525  1.0
  Ni  Ni167  1  0.36160900  0.77572067  0.15286525  1.0
  Ni  Ni168  1  0.69494233  0.10905400  0.15286525  1.0
  Ni  Ni169  1  0.69494233  0.44238733  0.15286525  1.0
  Ni  Ni170  1  0.69494233  0.77572067  0.15286525  1.0
  Ni  Ni171  1  0.13923267  0.11131233  0.15379258  1.0
  Ni  Ni172  1  0.13923267  0.44464567  0.15379258  1.0
  Ni  Ni173  1  0.13923267  0.77797900  0.15379258  1.0
  Ni  Ni174  1  0.47256600  0.11131233  0.15379258  1.0
  Ni  Ni175  1  0.47256600  0.44464567  0.15379258  1.0
  Ni  Ni176  1  0.47256600  0.77797900  0.15379258  1.0
  Ni  Ni177  1  0.80589933  0.11131233  0.15379258  1.0
  Ni  Ni178  1  0.80589933  0.44464567  0.15379258  1.0
  Ni  Ni179  1  0.80589933  0.77797900  0.15379258  1.0
  Ni  Ni180  1  0.25080033  0.10355333  0.14640750  1.0
  Ni  Ni181  1  0.25080033  0.43688667  0.14640750  1.0
  Ni  Ni182  1  0.25080033  0.77022000  0.14640750  1.0
  Ni  Ni183  1  0.58413367  0.10355333  0.14640750  1.0
  Ni  Ni184  1  0.58413367  0.43688667  0.14640750  1.0
  Ni  Ni185  1  0.58413367  0.77022000  0.14640750  1.0
  Ni  Ni186  1  0.91746700  0.10355333  0.14640750  1.0
  Ni  Ni187  1  0.91746700  0.43688667  0.14640750  1.0
  Ni  Ni188  1  0.91746700  0.77022000  0.14640750  1.0
  Ni  Ni189  1  0.30505767  0.22427933  0.09713475  1.0
  Ni  Ni190  1  0.30505767  0.55761267  0.09713475  1.0
  Ni  Ni191  1  0.30505767  0.89094600  0.09713475  1.0
  Ni  Ni192  1  0.63839100  0.22427933  0.09713475  1.0
  Ni  Ni193  1  0.63839100  0.55761267  0.09713475  1.0
  Ni  Ni194  1  0.63839100  0.89094600  0.09713475  1.0
  Ni  Ni195  1  0.97172433  0.22427933  0.09713475  1.0
  Ni  Ni196  1  0.97172433  0.55761267  0.09713475  1.0
  Ni  Ni197  1  0.97172433  0.89094600  0.09713475  1.0
  Ni  Ni198  1  0.19410067  0.22202100  0.09620742  1.0
  Ni  Ni199  1  0.19410067  0.55535433  0.09620742  1.0
  Ni  Ni200  1  0.19410067  0.88868767  0.09620742  1.0
  Ni  Ni201  1  0.52743400  0.22202100  0.09620742  1.0
  Ni  Ni202  1  0.52743400  0.55535433  0.09620742  1.0
  Ni  Ni203  1  0.52743400  0.88868767  0.09620742  1.0
  Ni  Ni204  1  0.86076733  0.22202100  0.09620742  1.0
  Ni  Ni205  1  0.86076733  0.55535433  0.09620742  1.0
  Ni  Ni206  1  0.86076733  0.88868767  0.09620742  1.0
  Ni  Ni207  1  0.08253300  0.22978000  0.10359250  1.0
  Ni  Ni208  1  0.08253300  0.56311333  0.10359250  1.0
  Ni  Ni209  1  0.08253300  0.89644667  0.10359250  1.0
  Ni  Ni210  1  0.41586633  0.22978000  0.10359250  1.0
  Ni  Ni211  1  0.41586633  0.56311333  0.10359250  1.0
  Ni  Ni212  1  0.41586633  0.89644667  0.10359250  1.0
  Ni  Ni213  1  0.74919967  0.22978000  0.10359250  1.0
  Ni  Ni214  1  0.74919967  0.56311333  0.10359250  1.0
  Ni  Ni215  1  0.74919967  0.89644667  0.10359250  1.0
  Ti  Ti216  1  0.30586133  0.06757633  0.17707208  1.0
  Ti  Ti217  1  0.30586133  0.40090967  0.17707208  1.0
  Ti  Ti218  1  0.30586133  0.73424300  0.17707208  1.0
  Ti  Ti219  1  0.63919467  0.06757633  0.17707208  1.0
  Ti  Ti220  1  0.63919467  0.40090967  0.17707208  1.0
  Ti  Ti221  1  0.63919467  0.73424300  0.17707208  1.0
  Ti  Ti222  1  0.97252800  0.06757633  0.17707208  1.0
  Ti  Ti223  1  0.97252800  0.40090967  0.17707208  1.0
  Ti  Ti224  1  0.97252800  0.73424300  0.17707208  1.0
  Ti  Ti225  1  0.02747200  0.26575700  0.23959458  1.0
  Ti  Ti226  1  0.02747200  0.59909033  0.23959458  1.0
  Ti  Ti227  1  0.02747200  0.93242367  0.23959458  1.0
  Ti  Ti228  1  0.36080533  0.26575700  0.23959458  1.0
  Ti  Ti229  1  0.36080533  0.59909033  0.23959458  1.0
  Ti  Ti230  1  0.36080533  0.93242367  0.23959458  1.0
  Ti  Ti231  1  0.69413867  0.26575700  0.23959458  1.0
  Ti  Ti232  1  0.69413867  0.59909033  0.23959458  1.0
  Ti  Ti233  1  0.69413867  0.93242367  0.23959458  1.0
  Ti  Ti234  1  0.24960533  0.25859000  0.23306250  1.0
  Ti  Ti235  1  0.24960533  0.59192333  0.23306250  1.0
  Ti  Ti236  1  0.24960533  0.92525667  0.23306250  1.0
  Ti  Ti237  1  0.58293867  0.25859000  0.23306250  1.0
  Ti  Ti238  1  0.58293867  0.59192333  0.23306250  1.0
  Ti  Ti239  1  0.58293867  0.92525667  0.23306250  1.0
  Ti  Ti240  1  0.91627200  0.25859000  0.23306250  1.0
  Ti  Ti241  1  0.91627200  0.59192333  0.23306250  1.0
  Ti  Ti242  1  0.91627200  0.92525667  0.23306250  1.0
  Ti  Ti243  1  0.13830333  0.26836800  0.24157058  1.0
  Ti  Ti244  1  0.13830333  0.60170133  0.24157058  1.0
  Ti  Ti245  1  0.13830333  0.93503467  0.24157058  1.0
  Ti  Ti246  1  0.47163667  0.26836800  0.24157058  1.0
  Ti  Ti247  1  0.47163667  0.60170133  0.24157058  1.0
  Ti  Ti248  1  0.47163667  0.93503467  0.24157058  1.0
  Ti  Ti249  1  0.80497000  0.26836800  0.24157058  1.0
  Ti  Ti250  1  0.80497000  0.60170133  0.24157058  1.0
  Ti  Ti251  1  0.80497000  0.93503467  0.24157058  1.0
  Ti  Ti252  1  0.19503000  0.06496533  0.17509608  1.0
  Ti  Ti253  1  0.19503000  0.39829867  0.17509608  1.0
  Ti  Ti254  1  0.19503000  0.73163200  0.17509608  1.0
  Ti  Ti255  1  0.52836333  0.06496533  0.17509608  1.0
  Ti  Ti256  1  0.52836333  0.39829867  0.17509608  1.0
  Ti  Ti257  1  0.52836333  0.73163200  0.17509608  1.0
  Ti  Ti258  1  0.86169667  0.06496533  0.17509608  1.0
  Ti  Ti259  1  0.86169667  0.39829867  0.17509608  1.0
  Ti  Ti260  1  0.86169667  0.73163200  0.17509608  1.0
  Ti  Ti261  1  0.08372800  0.07474333  0.18360417  1.0
  Ti  Ti262  1  0.08372800  0.40807667  0.18360417  1.0
  Ti  Ti263  1  0.08372800  0.74141000  0.18360417  1.0
  Ti  Ti264  1  0.41706133  0.07474333  0.18360417  1.0
  Ti  Ti265  1  0.41706133  0.40807667  0.18360417  1.0
  Ti  Ti266  1  0.41706133  0.74141000  0.18360417  1.0
  Ti  Ti267  1  0.75039467  0.07474333  0.18360417  1.0
  Ti  Ti268  1  0.75039467  0.40807667  0.18360417  1.0
  Ti  Ti269  1  0.75039467  0.74141000  0.18360417  1.0
  Ni  Ni270  1  0.02827567  0.10905400  0.23619858  1.0
  Ni  Ni271  1  0.02827567  0.44238733  0.23619858  1.0
  Ni  Ni272  1  0.02827567  0.77572067  0.23619858  1.0
  Ni  Ni273  1  0.36160900  0.10905400  0.23619858  1.0
  Ni  Ni274  1  0.36160900  0.44238733  0.23619858  1.0
  Ni  Ni275  1  0.36160900  0.77572067  0.23619858  1.0
  Ni  Ni276  1  0.69494233  0.10905400  0.23619858  1.0
  Ni  Ni277  1  0.69494233  0.44238733  0.23619858  1.0
  Ni  Ni278  1  0.69494233  0.77572067  0.23619858  1.0
  Ni  Ni279  1  0.13923267  0.11131233  0.23712592  1.0
  Ni  Ni280  1  0.13923267  0.44464567  0.23712592  1.0
  Ni  Ni281  1  0.13923267  0.77797900  0.23712592  1.0
  Ni  Ni282  1  0.47256600  0.11131233  0.23712592  1.0
  Ni  Ni283  1  0.47256600  0.44464567  0.23712592  1.0
  Ni  Ni284  1  0.47256600  0.77797900  0.23712592  1.0
  Ni  Ni285  1  0.80589933  0.11131233  0.23712592  1.0
  Ni  Ni286  1  0.80589933  0.44464567  0.23712592  1.0
  Ni  Ni287  1  0.80589933  0.77797900  0.23712592  1.0
  Ni  Ni288  1  0.25080033  0.10355333  0.22974083  1.0
  Ni  Ni289  1  0.25080033  0.43688667  0.22974083  1.0
  Ni  Ni290  1  0.25080033  0.77022000  0.22974083  1.0
  Ni  Ni291  1  0.58413367  0.10355333  0.22974083  1.0
  Ni  Ni292  1  0.58413367  0.43688667  0.22974083  1.0
  Ni  Ni293  1  0.58413367  0.77022000  0.22974083  1.0
  Ni  Ni294  1  0.91746700  0.10355333  0.22974083  1.0
  Ni  Ni295  1  0.91746700  0.43688667  0.22974083  1.0
  Ni  Ni296  1  0.91746700  0.77022000  0.22974083  1.0
  Ni  Ni297  1  0.30505767  0.22427933  0.18046808  1.0
  Ni  Ni298  1  0.30505767  0.55761267  0.18046808  1.0
  Ni  Ni299  1  0.30505767  0.89094600  0.18046808  1.0
  Ni  Ni300  1  0.63839100  0.22427933  0.18046808  1.0
  Ni  Ni301  1  0.63839100  0.55761267  0.18046808  1.0
  Ni  Ni302  1  0.63839100  0.89094600  0.18046808  1.0
  Ni  Ni303  1  0.97172433  0.22427933  0.18046808  1.0
  Ni  Ni304  1  0.97172433  0.55761267  0.18046808  1.0
  Ni  Ni305  1  0.97172433  0.89094600  0.18046808  1.0
  Ni  Ni306  1  0.19410067  0.22202100  0.17954075  1.0
  Ni  Ni307  1  0.19410067  0.55535433  0.17954075  1.0
  Ni  Ni308  1  0.19410067  0.88868767  0.17954075  1.0
  Ni  Ni309  1  0.52743400  0.22202100  0.17954075  1.0
  Ni  Ni310  1  0.52743400  0.55535433  0.17954075  1.0
  Ni  Ni311  1  0.52743400  0.88868767  0.17954075  1.0
  Ni  Ni312  1  0.86076733  0.22202100  0.17954075  1.0
  Ni  Ni313  1  0.86076733  0.55535433  0.17954075  1.0
  Ni  Ni314  1  0.86076733  0.88868767  0.17954075  1.0
  Ni  Ni315  1  0.08253300  0.22978000  0.18692583  1.0
  Ni  Ni316  1  0.08253300  0.56311333  0.18692583  1.0
  Ni  Ni317  1  0.08253300  0.89644667  0.18692583  1.0
  Ni  Ni318  1  0.41586633  0.22978000  0.18692583  1.0
  Ni  Ni319  1  0.41586633  0.56311333  0.18692583  1.0
  Ni  Ni320  1  0.41586633  0.89644667  0.18692583  1.0
  Ni  Ni321  1  0.74919967  0.22978000  0.18692583  1.0
  Ni  Ni322  1  0.74919967  0.56311333  0.18692583  1.0
  Ni  Ni323  1  0.74919967  0.89644667  0.18692583  1.0
  Ti  Ti324  1  0.30586133  0.06757633  0.26040542  1.0
  Ti  Ti325  1  0.30586133  0.40090967  0.26040542  1.0
  Ti  Ti326  1  0.30586133  0.73424300  0.26040542  1.0
  Ti  Ti327  1  0.63919467  0.06757633  0.26040542  1.0
  Ti  Ti328  1  0.63919467  0.40090967  0.26040542  1.0
  Ti  Ti329  1  0.63919467  0.73424300  0.26040542  1.0
  Ti  Ti330  1  0.97252800  0.06757633  0.26040542  1.0
  Ti  Ti331  1  0.97252800  0.40090967  0.26040542  1.0
  Ti  Ti332  1  0.97252800  0.73424300  0.26040542  1.0
  Ti  Ti333  1  0.02747200  0.26575700  0.32292792  1.0
  Ti  Ti334  1  0.02747200  0.59909033  0.32292792  1.0
  Ti  Ti335  1  0.02747200  0.93242367  0.32292792  1.0
  Ti  Ti336  1  0.36080533  0.26575700  0.32292792  1.0
  Ti  Ti337  1  0.36080533  0.59909033  0.32292792  1.0
  Ti  Ti338  1  0.36080533  0.93242367  0.32292792  1.0
  Ti  Ti339  1  0.69413867  0.26575700  0.32292792  1.0
  Ti  Ti340  1  0.69413867  0.59909033  0.32292792  1.0
  Ti  Ti341  1  0.69413867  0.93242367  0.32292792  1.0
  Ti  Ti342  1  0.24960533  0.25859000  0.31639583  1.0
  Ti  Ti343  1  0.24960533  0.59192333  0.31639583  1.0
  Ti  Ti344  1  0.24960533  0.92525667  0.31639583  1.0
  Ti  Ti345  1  0.58293867  0.25859000  0.31639583  1.0
  Ti  Ti346  1  0.58293867  0.59192333  0.31639583  1.0
  Ti  Ti347  1  0.58293867  0.92525667  0.31639583  1.0
  Ti  Ti348  1  0.91627200  0.25859000  0.31639583  1.0
  Ti  Ti349  1  0.91627200  0.59192333  0.31639583  1.0
  Ti  Ti350  1  0.91627200  0.92525667  0.31639583  1.0
  Ti  Ti351  1  0.13830333  0.26836800  0.32490392  1.0
  Ti  Ti352  1  0.13830333  0.60170133  0.32490392  1.0
  Ti  Ti353  1  0.13830333  0.93503467  0.32490392  1.0
  Ti  Ti354  1  0.47163667  0.26836800  0.32490392  1.0
  Ti  Ti355  1  0.47163667  0.60170133  0.32490392  1.0
  Ti  Ti356  1  0.47163667  0.93503467  0.32490392  1.0
  Ti  Ti357  1  0.80497000  0.26836800  0.32490392  1.0
  Ti  Ti358  1  0.80497000  0.60170133  0.32490392  1.0
  Ti  Ti359  1  0.80497000  0.93503467  0.32490392  1.0
  Ti  Ti360  1  0.19503000  0.06496533  0.25842942  1.0
  Ti  Ti361  1  0.19503000  0.39829867  0.25842942  1.0
  Ti  Ti362  1  0.19503000  0.73163200  0.25842942  1.0
  Ti  Ti363  1  0.52836333  0.06496533  0.25842942  1.0
  Ti  Ti364  1  0.52836333  0.39829867  0.25842942  1.0
  Ti  Ti365  1  0.52836333  0.73163200  0.25842942  1.0
  Ti  Ti366  1  0.86169667  0.06496533  0.25842942  1.0
  Ti  Ti367  1  0.86169667  0.39829867  0.25842942  1.0
  Ti  Ti368  1  0.86169667  0.73163200  0.25842942  1.0
  Ti  Ti369  1  0.08372800  0.07474333  0.26693750  1.0
  Ti  Ti370  1  0.08372800  0.40807667  0.26693750  1.0
  Ti  Ti371  1  0.08372800  0.74141000  0.26693750  1.0
  Ti  Ti372  1  0.41706133  0.07474333  0.26693750  1.0
  Ti  Ti373  1  0.41706133  0.40807667  0.26693750  1.0
  Ti  Ti374  1  0.41706133  0.74141000  0.26693750  1.0
  Ti  Ti375  1  0.75039467  0.07474333  0.26693750  1.0
  Ti  Ti376  1  0.75039467  0.40807667  0.26693750  1.0
  Ti  Ti377  1  0.75039467  0.74141000  0.26693750  1.0
  Ni  Ni378  1  0.02827567  0.10905400  0.31953192  1.0
  Ni  Ni379  1  0.02827567  0.44238733  0.31953192  1.0
  Ni  Ni380  1  0.02827567  0.77572067  0.31953192  1.0
  Ni  Ni381  1  0.36160900  0.10905400  0.31953192  1.0
  Ni  Ni382  1  0.36160900  0.44238733  0.31953192  1.0
  Ni  Ni383  1  0.36160900  0.77572067  0.31953192  1.0
  Ni  Ni384  1  0.69494233  0.10905400  0.31953192  1.0
  Ni  Ni385  1  0.69494233  0.44238733  0.31953192  1.0
  Ni  Ni386  1  0.69494233  0.77572067  0.31953192  1.0
  Ni  Ni387  1  0.13923267  0.11131233  0.32045925  1.0
  Ni  Ni388  1  0.13923267  0.44464567  0.32045925  1.0
  Ni  Ni389  1  0.13923267  0.77797900  0.32045925  1.0
  Ni  Ni390  1  0.47256600  0.11131233  0.32045925  1.0
  Ni  Ni391  1  0.47256600  0.44464567  0.32045925  1.0
  Ni  Ni392  1  0.47256600  0.77797900  0.32045925  1.0
  Ni  Ni393  1  0.80589933  0.11131233  0.32045925  1.0
  Ni  Ni394  1  0.80589933  0.44464567  0.32045925  1.0
  Ni  Ni395  1  0.80589933  0.77797900  0.32045925  1.0
  Ni  Ni396  1  0.25080033  0.10355333  0.31307417  1.0
  Ni  Ni397  1  0.25080033  0.43688667  0.31307417  1.0
  Ni  Ni398  1  0.25080033  0.77022000  0.31307417  1.0
  Ni  Ni399  1  0.58413367  0.10355333  0.31307417  1.0
  Ni  Ni400  1  0.58413367  0.43688667  0.31307417  1.0
  Ni  Ni401  1  0.58413367  0.77022000  0.31307417  1.0
  Ni  Ni402  1  0.91746700  0.10355333  0.31307417  1.0
  Ni  Ni403  1  0.91746700  0.43688667  0.31307417  1.0
  Ni  Ni404  1  0.91746700  0.77022000  0.31307417  1.0
  Ni  Ni405  1  0.30505767  0.22427933  0.26380142  1.0
  Ni  Ni406  1  0.30505767  0.55761267  0.26380142  1.0
  Ni  Ni407  1  0.30505767  0.89094600  0.26380142  1.0
  Ni  Ni408  1  0.63839100  0.22427933  0.26380142  1.0
  Ni  Ni409  1  0.63839100  0.55761267  0.26380142  1.0
  Ni  Ni410  1  0.63839100  0.89094600  0.26380142  1.0
  Ni  Ni411  1  0.97172433  0.22427933  0.26380142  1.0
  Ni  Ni412  1  0.97172433  0.55761267  0.26380142  1.0
  Ni  Ni413  1  0.97172433  0.89094600  0.26380142  1.0
  Ni  Ni414  1  0.19410067  0.22202100  0.26287408  1.0
  Ni  Ni415  1  0.19410067  0.55535433  0.26287408  1.0
  Ni  Ni416  1  0.19410067  0.88868767  0.26287408  1.0
  Ni  Ni417  1  0.52743400  0.22202100  0.26287408  1.0
  Ni  Ni418  1  0.52743400  0.55535433  0.26287408  1.0
  Ni  Ni419  1  0.52743400  0.88868767  0.26287408  1.0
  Ni  Ni420  1  0.86076733  0.22202100  0.26287408  1.0
  Ni  Ni421  1  0.86076733  0.55535433  0.26287408  1.0
  Ni  Ni422  1  0.86076733  0.88868767  0.26287408  1.0
  Ni  Ni423  1  0.08253300  0.22978000  0.27025917  1.0
  Ni  Ni424  1  0.08253300  0.56311333  0.27025917  1.0
  Ni  Ni425  1  0.08253300  0.89644667  0.27025917  1.0
  Ni  Ni426  1  0.41586633  0.22978000  0.27025917  1.0
  Ni  Ni427  1  0.41586633  0.56311333  0.27025917  1.0
  Ni  Ni428  1  0.41586633  0.89644667  0.27025917  1.0
  Ni  Ni429  1  0.74919967  0.22978000  0.27025917  1.0
  Ni  Ni430  1  0.74919967  0.56311333  0.27025917  1.0
  Ni  Ni431  1  0.74919967  0.89644667  0.27025917  1.0
  Ti  Ti432  1  0.30586133  0.06757633  0.34373875  1.0
  Ti  Ti433  1  0.30586133  0.40090967  0.34373875  1.0
  Ti  Ti434  1  0.30586133  0.73424300  0.34373875  1.0
  Ti  Ti435  1  0.63919467  0.06757633  0.34373875  1.0
  Ti  Ti436  1  0.63919467  0.40090967  0.34373875  1.0
  Ti  Ti437  1  0.63919467  0.73424300  0.34373875  1.0
  Ti  Ti438  1  0.97252800  0.06757633  0.34373875  1.0
  Ti  Ti439  1  0.97252800  0.40090967  0.34373875  1.0
  Ti  Ti440  1  0.97252800  0.73424300  0.34373875  1.0
  Ti  Ti441  1  0.02747200  0.26575700  0.40626125  1.0
  Ti  Ti442  1  0.02747200  0.59909033  0.40626125  1.0
  Ti  Ti443  1  0.02747200  0.93242367  0.40626125  1.0
  Ti  Ti444  1  0.36080533  0.26575700  0.40626125  1.0
  Ti  Ti445  1  0.36080533  0.59909033  0.40626125  1.0
  Ti  Ti446  1  0.36080533  0.93242367  0.40626125  1.0
  Ti  Ti447  1  0.69413867  0.26575700  0.40626125  1.0
  Ti  Ti448  1  0.69413867  0.59909033  0.40626125  1.0
  Ti  Ti449  1  0.69413867  0.93242367  0.40626125  1.0
  Ti  Ti450  1  0.24960533  0.25859000  0.39972917  1.0
  Ti  Ti451  1  0.24960533  0.59192333  0.39972917  1.0
  Ti  Ti452  1  0.24960533  0.92525667  0.39972917  1.0
  Ti  Ti453  1  0.58293867  0.25859000  0.39972917  1.0
  Ti  Ti454  1  0.58293867  0.59192333  0.39972917  1.0
  Ti  Ti455  1  0.58293867  0.92525667  0.39972917  1.0
  Ti  Ti456  1  0.91627200  0.25859000  0.39972917  1.0
  Ti  Ti457  1  0.91627200  0.59192333  0.39972917  1.0
  Ti  Ti458  1  0.91627200  0.92525667  0.39972917  1.0
  Ti  Ti459  1  0.13830333  0.26836800  0.40823725  1.0
  Ti  Ti460  1  0.13830333  0.60170133  0.40823725  1.0
  Ti  Ti461  1  0.13830333  0.93503467  0.40823725  1.0
  Ti  Ti462  1  0.47163667  0.26836800  0.40823725  1.0
  Ti  Ti463  1  0.47163667  0.60170133  0.40823725  1.0
  Ti  Ti464  1  0.47163667  0.93503467  0.40823725  1.0
  Ti  Ti465  1  0.80497000  0.26836800  0.40823725  1.0
  Ti  Ti466  1  0.80497000  0.60170133  0.40823725  1.0
  Ti  Ti467  1  0.80497000  0.93503467  0.40823725  1.0
  Ti  Ti468  1  0.19503000  0.06496533  0.34176275  1.0
  Ti  Ti469  1  0.19503000  0.39829867  0.34176275  1.0
  Ti  Ti470  1  0.19503000  0.73163200  0.34176275  1.0
  Ti  Ti471  1  0.52836333  0.06496533  0.34176275  1.0
  Ti  Ti472  1  0.52836333  0.39829867  0.34176275  1.0
  Ti  Ti473  1  0.52836333  0.73163200  0.34176275  1.0
  Ti  Ti474  1  0.86169667  0.06496533  0.34176275  1.0
  Ti  Ti475  1  0.86169667  0.39829867  0.34176275  1.0
  Ti  Ti476  1  0.86169667  0.73163200  0.34176275  1.0
  Ti  Ti477  1  0.08372800  0.07474333  0.35027083  1.0
  Ti  Ti478  1  0.08372800  0.40807667  0.35027083  1.0
  Ti  Ti479  1  0.08372800  0.74141000  0.35027083  1.0
  Ti  Ti480  1  0.41706133  0.07474333  0.35027083  1.0
  Ti  Ti481  1  0.41706133  0.40807667  0.35027083  1.0
  Ti  Ti482  1  0.41706133  0.74141000  0.35027083  1.0
  Ti  Ti483  1  0.75039467  0.07474333  0.35027083  1.0
  Ti  Ti484  1  0.75039467  0.40807667  0.35027083  1.0
  Ti  Ti485  1  0.75039467  0.74141000  0.35027083  1.0
  Ni  Ni486  1  0.02827567  0.10905400  0.40286525  1.0
  Ni  Ni487  1  0.02827567  0.44238733  0.40286525  1.0
  Ni  Ni488  1  0.02827567  0.77572067  0.40286525  1.0
  Ni  Ni489  1  0.36160900  0.10905400  0.40286525  1.0
  Ni  Ni490  1  0.36160900  0.44238733  0.40286525  1.0
  Ni  Ni491  1  0.36160900  0.77572067  0.40286525  1.0
  Ni  Ni492  1  0.69494233  0.10905400  0.40286525  1.0
  Ni  Ni493  1  0.69494233  0.44238733  0.40286525  1.0
  Ni  Ni494  1  0.69494233  0.77572067  0.40286525  1.0
  Ni  Ni495  1  0.13923267  0.11131233  0.40379258  1.0
  Ni  Ni496  1  0.13923267  0.44464567  0.40379258  1.0
  Ni  Ni497  1  0.13923267  0.77797900  0.40379258  1.0
  Ni  Ni498  1  0.47256600  0.11131233  0.40379258  1.0
  Ni  Ni499  1  0.47256600  0.44464567  0.40379258  1.0
  Ni  Ni500  1  0.47256600  0.77797900  0.40379258  1.0
  Ni  Ni501  1  0.80589933  0.11131233  0.40379258  1.0
  Ni  Ni502  1  0.80589933  0.44464567  0.40379258  1.0
  Ni  Ni503  1  0.80589933  0.77797900  0.40379258  1.0
  Ni  Ni504  1  0.25080033  0.10355333  0.39640750  1.0
  Ni  Ni505  1  0.25080033  0.43688667  0.39640750  1.0
  Ni  Ni506  1  0.25080033  0.77022000  0.39640750  1.0
  Ni  Ni507  1  0.58413367  0.10355333  0.39640750  1.0
  Ni  Ni508  1  0.58413367  0.43688667  0.39640750  1.0
  Ni  Ni509  1  0.58413367  0.77022000  0.39640750  1.0
  Ni  Ni510  1  0.91746700  0.10355333  0.39640750  1.0
  Ni  Ni511  1  0.91746700  0.43688667  0.39640750  1.0
  Ni  Ni512  1  0.91746700  0.77022000  0.39640750  1.0
  Ni  Ni513  1  0.30505767  0.22427933  0.34713475  1.0
  Ni  Ni514  1  0.30505767  0.55761267  0.34713475  1.0
  Ni  Ni515  1  0.30505767  0.89094600  0.34713475  1.0
  Ni  Ni516  1  0.63839100  0.22427933  0.34713475  1.0
  Ni  Ni517  1  0.63839100  0.55761267  0.34713475  1.0
  Ni  Ni518  1  0.63839100  0.89094600  0.34713475  1.0
  Ni  Ni519  1  0.97172433  0.22427933  0.34713475  1.0
  Ni  Ni520  1  0.97172433  0.55761267  0.34713475  1.0
  Ni  Ni521  1  0.97172433  0.89094600  0.34713475  1.0
  Ni  Ni522  1  0.19410067  0.22202100  0.34620742  1.0
  Ni  Ni523  1  0.19410067  0.55535433  0.34620742  1.0
  Ni  Ni524  1  0.19410067  0.88868767  0.34620742  1.0
  Ni  Ni525  1  0.52743400  0.22202100  0.34620742  1.0
  Ni  Ni526  1  0.52743400  0.55535433  0.34620742  1.0
  Ni  Ni527  1  0.52743400  0.88868767  0.34620742  1.0
  Ni  Ni528  1  0.86076733  0.22202100  0.34620742  1.0
  Ni  Ni529  1  0.86076733  0.55535433  0.34620742  1.0
  Ni  Ni530  1  0.86076733  0.88868767  0.34620742  1.0
  Ni  Ni531  1  0.08253300  0.22978000  0.35359250  1.0
  Ni  Ni532  1  0.08253300  0.56311333  0.35359250  1.0
  Ni  Ni533  1  0.08253300  0.89644667  0.35359250  1.0
  Ni  Ni534  1  0.41586633  0.22978000  0.35359250  1.0
  Ni  Ni535  1  0.41586633  0.56311333  0.35359250  1.0
  Ni  Ni536  1  0.41586633  0.89644667  0.35359250  1.0
  Ni  Ni537  1  0.74919967  0.22978000  0.35359250  1.0
  Ni  Ni538  1  0.74919967  0.56311333  0.35359250  1.0
  Ni  Ni539  1  0.74919967  0.89644667  0.35359250  1.0
