# generated using pymatgen
data_TiNi
_symmetry_space_group_name_H-M   'P 1'
_cell_length_a   16.19226000
_cell_length_b   37.65413469
_cell_length_c   57.97233280
_cell_angle_alpha   150.00000000
_cell_angle_beta   90.00000000
_cell_angle_gamma   90.00000000
_symmetry_Int_Tables_number   1
_chemical_formula_structural   TiNi
_chemical_formula_sum   'Ti243 Ni243'
_cell_volume   17673.02620825
_cell_formula_units_Z   243
loop_
 _symmetry_equiv_pos_site_id
 _symmetry_equiv_pos_as_xyz
  1  'x, y, z'
loop_
 _atom_site_type_symbol
 _atom_site_label
 _atom_site_symmetry_multiplicity
 _atom_site_fract_x
 _atom_site_fract_y
 _atom_site_fract_z
 _atom_site_occupancy
  Ti  Ti0  1  0.32730233  0.22222222  0.10548816  1.0
  Ti  Ti1  1  0.32730233  0.55555556  0.10548816  1.0
  Ti  Ti2  1  0.32730233  0.88888889  0.10548816  1.0
  Ti  Ti3  1  0.66063567  0.22222222  0.10548816  1.0
  Ti  Ti4  1  0.66063567  0.55555556  0.10548816  1.0
  Ti  Ti5  1  0.66063567  0.88888889  0.10548816  1.0
  Ti  Ti6  1  0.99396900  0.22222222  0.10548816  1.0
  Ti  Ti7  1  0.99396900  0.55555556  0.10548816  1.0
  Ti  Ti8  1  0.99396900  0.88888889  0.10548816  1.0
  Ti  Ti9  1  0.02141933  0.00000000  0.10548816  1.0
  Ti  Ti10  1  0.02141933  0.33333333  0.10548816  1.0
  Ti  Ti11  1  0.02141933  0.66666667  0.10548816  1.0
  Ti  Ti12  1  0.35475267  0.00000000  0.10548816  1.0
  Ti  Ti13  1  0.35475267  0.33333333  0.10548816  1.0
  Ti  Ti14  1  0.35475267  0.66666667  0.10548816  1.0
  Ti  Ti15  1  0.68808600  0.00000000  0.10548816  1.0
  Ti  Ti16  1  0.68808600  0.33333333  0.10548816  1.0
  Ti  Ti17  1  0.68808600  0.66666667  0.10548816  1.0
  Ti  Ti18  1  0.32730233  0.11111111  0.10548816  1.0
  Ti  Ti19  1  0.32730233  0.44444444  0.10548816  1.0
  Ti  Ti20  1  0.32730233  0.77777778  0.10548816  1.0
  Ti  Ti21  1  0.66063567  0.11111111  0.10548816  1.0
  Ti  Ti22  1  0.66063567  0.44444444  0.10548816  1.0
  Ti  Ti23  1  0.66063567  0.77777778  0.10548816  1.0
  Ti  Ti24  1  0.99396900  0.11111111  0.10548816  1.0
  Ti  Ti25  1  0.99396900  0.44444444  0.10548816  1.0
  Ti  Ti26  1  0.99396900  0.77777778  0.10548816  1.0
  Ti  Ti27  1  0.12150633  0.10492283  0.01983422  1.0
  Ti  Ti28  1  0.12150633  0.43825617  0.01983422  1.0
  Ti  Ti29  1  0.12150633  0.77158950  0.01983422  1.0
  Ti  Ti30  1  0.45483967  0.10492283  0.01983422  1.0
  Ti  Ti31  1  0.45483967  0.43825617  0.01983422  1.0
  Ti  Ti32  1  0.45483967  0.77158950  0.01983422  1.0
  Ti  Ti33  1  0.78817300  0.10492283  0.01983422  1.0
  Ti  Ti34  1  0.78817300  0.43825617  0.01983422  1.0
  Ti  Ti35  1  0.78817300  0.77158950  0.01983422  1.0
  Ti  Ti36  1  0.12150633  0.22841050  0.02679603  1.0
  Ti  Ti37  1  0.12150633  0.56174383  0.02679603  1.0
  Ti  Ti38  1  0.12150633  0.89507717  0.02679603  1.0
  Ti  Ti39  1  0.45483967  0.22841050  0.02679603  1.0
  Ti  Ti40  1  0.45483967  0.56174383  0.02679603  1.0
  Ti  Ti41  1  0.45483967  0.89507717  0.02679603  1.0
  Ti  Ti42  1  0.78817300  0.22841050  0.02679603  1.0
  Ti  Ti43  1  0.78817300  0.56174383  0.02679603  1.0
  Ti  Ti44  1  0.78817300  0.89507717  0.02679603  1.0
  Ti  Ti45  1  0.12150633  0.00000000  0.01983422  1.0
  Ti  Ti46  1  0.12150633  0.33333333  0.01983422  1.0
  Ti  Ti47  1  0.12150633  0.66666667  0.01983422  1.0
  Ti  Ti48  1  0.45483967  0.00000000  0.01983422  1.0
  Ti  Ti49  1  0.45483967  0.33333333  0.01983422  1.0
  Ti  Ti50  1  0.45483967  0.66666667  0.01983422  1.0
  Ti  Ti51  1  0.78817300  0.00000000  0.01983422  1.0
  Ti  Ti52  1  0.78817300  0.33333333  0.01983422  1.0
  Ti  Ti53  1  0.78817300  0.66666667  0.01983422  1.0
  Ti  Ti54  1  0.22231833  0.00000000  0.06227134  1.0
  Ti  Ti55  1  0.22231833  0.33333333  0.06227134  1.0
  Ti  Ti56  1  0.22231833  0.66666667  0.06227134  1.0
  Ti  Ti57  1  0.55565167  0.00000000  0.06227134  1.0
  Ti  Ti58  1  0.55565167  0.33333333  0.06227134  1.0
  Ti  Ti59  1  0.55565167  0.66666667  0.06227134  1.0
  Ti  Ti60  1  0.88898500  0.00000000  0.06227134  1.0
  Ti  Ti61  1  0.88898500  0.33333333  0.06227134  1.0
  Ti  Ti62  1  0.88898500  0.66666667  0.06227134  1.0
  Ti  Ti63  1  0.22231833  0.21808850  0.06227134  1.0
  Ti  Ti64  1  0.22231833  0.55142183  0.06227134  1.0
  Ti  Ti65  1  0.22231833  0.88475517  0.06227134  1.0
  Ti  Ti66  1  0.55565167  0.21808850  0.06227134  1.0
  Ti  Ti67  1  0.55565167  0.55142183  0.06227134  1.0
  Ti  Ti68  1  0.55565167  0.88475517  0.06227134  1.0
  Ti  Ti69  1  0.88898500  0.21808850  0.06227134  1.0
  Ti  Ti70  1  0.88898500  0.55142183  0.06227134  1.0
  Ti  Ti71  1  0.88898500  0.88475517  0.06227134  1.0
  Ti  Ti72  1  0.22231833  0.11524483  0.06692178  1.0
  Ti  Ti73  1  0.22231833  0.44857817  0.06692178  1.0
  Ti  Ti74  1  0.22231833  0.78191150  0.06692178  1.0
  Ti  Ti75  1  0.55565167  0.11524483  0.06692178  1.0
  Ti  Ti76  1  0.55565167  0.44857817  0.06692178  1.0
  Ti  Ti77  1  0.55565167  0.78191150  0.06692178  1.0
  Ti  Ti78  1  0.88898500  0.11524483  0.06692178  1.0
  Ti  Ti79  1  0.88898500  0.44857817  0.06692178  1.0
  Ti  Ti80  1  0.88898500  0.78191150  0.06692178  1.0
  Ni  Ni81  1  0.14733000  0.22222222  0.10548816  1.0
  Ni  Ni82  1  0.14733000  0.55555556  0.10548816  1.0
  Ni  Ni83  1  0.14733000  0.88888889  0.10548816  1.0
  Ni  Ni84  1  0.48066333  0.22222222  0.10548816  1.0
  Ni  Ni85  1  0.48066333  0.55555556  0.10548816  1.0
  Ni  Ni86  1  0.48066333  0.88888889  0.10548816  1.0
  Ni  Ni87  1  0.81399667  0.22222222  0.10548816  1.0
  Ni  Ni88  1  0.81399667  0.55555556  0.10548816  1.0
  Ni  Ni89  1  0.81399667  0.88888889  0.10548816  1.0
  Ni  Ni90  1  0.20518600  0.00000000  0.10548816  1.0
  Ni  Ni91  1  0.20518600  0.33333333  0.10548816  1.0
  Ni  Ni92  1  0.20518600  0.66666667  0.10548816  1.0
  Ni  Ni93  1  0.53851933  0.00000000  0.10548816  1.0
  Ni  Ni94  1  0.53851933  0.33333333  0.10548816  1.0
  Ni  Ni95  1  0.53851933  0.66666667  0.10548816  1.0
  Ni  Ni96  1  0.87185267  0.00000000  0.10548816  1.0
  Ni  Ni97  1  0.87185267  0.33333333  0.10548816  1.0
  Ni  Ni98  1  0.87185267  0.66666667  0.10548816  1.0
  Ni  Ni99  1  0.14733000  0.11111111  0.10548816  1.0
  Ni  Ni100  1  0.14733000  0.44444444  0.10548816  1.0
  Ni  Ni101  1  0.14733000  0.77777778  0.10548816  1.0
  Ni  Ni102  1  0.48066333  0.11111111  0.10548816  1.0
  Ni  Ni103  1  0.48066333  0.44444444  0.10548816  1.0
  Ni  Ni104  1  0.48066333  0.77777778  0.10548816  1.0
  Ni  Ni105  1  0.81399667  0.11111111  0.10548816  1.0
  Ni  Ni106  1  0.81399667  0.44444444  0.10548816  1.0
  Ni  Ni107  1  0.81399667  0.77777778  0.10548816  1.0
  Ni  Ni108  1  0.29361200  0.10406317  0.01951184  1.0
  Ni  Ni109  1  0.29361200  0.43739650  0.01951184  1.0
  Ni  Ni110  1  0.29361200  0.77072983  0.01951184  1.0
  Ni  Ni111  1  0.62694533  0.10406317  0.01951184  1.0
  Ni  Ni112  1  0.62694533  0.43739650  0.01951184  1.0
  Ni  Ni113  1  0.62694533  0.77072983  0.01951184  1.0
  Ni  Ni114  1  0.96027867  0.10406317  0.01951184  1.0
  Ni  Ni115  1  0.96027867  0.43739650  0.01951184  1.0
  Ni  Ni116  1  0.96027867  0.77072983  0.01951184  1.0
  Ni  Ni117  1  0.29361200  0.22927017  0.02744078  1.0
  Ni  Ni118  1  0.29361200  0.56260350  0.02744078  1.0
  Ni  Ni119  1  0.29361200  0.89593683  0.02744078  1.0
  Ni  Ni120  1  0.62694533  0.22927017  0.02744078  1.0
  Ni  Ni121  1  0.62694533  0.56260350  0.02744078  1.0
  Ni  Ni122  1  0.62694533  0.89593683  0.02744078  1.0
  Ni  Ni123  1  0.96027867  0.22927017  0.02744078  1.0
  Ni  Ni124  1  0.96027867  0.56260350  0.02744078  1.0
  Ni  Ni125  1  0.96027867  0.89593683  0.02744078  1.0
  Ni  Ni126  1  0.29361200  0.00000000  0.01951184  1.0
  Ni  Ni127  1  0.29361200  0.33333333  0.01951184  1.0
  Ni  Ni128  1  0.29361200  0.66666667  0.01951184  1.0
  Ni  Ni129  1  0.62694533  0.00000000  0.01951184  1.0
  Ni  Ni130  1  0.62694533  0.33333333  0.01951184  1.0
  Ni  Ni131  1  0.62694533  0.66666667  0.01951184  1.0
  Ni  Ni132  1  0.96027867  0.00000000  0.01951184  1.0
  Ni  Ni133  1  0.96027867  0.33333333  0.01951184  1.0
  Ni  Ni134  1  0.96027867  0.66666667  0.01951184  1.0
  Ni  Ni135  1  0.05312067  0.00000000  0.06054059  1.0
  Ni  Ni136  1  0.05312067  0.33333333  0.06054059  1.0
  Ni  Ni137  1  0.05312067  0.66666667  0.06054059  1.0
  Ni  Ni138  1  0.38645400  0.00000000  0.06054059  1.0
  Ni  Ni139  1  0.38645400  0.33333333  0.06054059  1.0
  Ni  Ni140  1  0.38645400  0.66666667  0.06054059  1.0
  Ni  Ni141  1  0.71978733  0.00000000  0.06054059  1.0
  Ni  Ni142  1  0.71978733  0.33333333  0.06054059  1.0
  Ni  Ni143  1  0.71978733  0.66666667  0.06054059  1.0
  Ni  Ni144  1  0.05312067  0.21347317  0.06054059  1.0
  Ni  Ni145  1  0.05312067  0.54680650  0.06054059  1.0
  Ni  Ni146  1  0.05312067  0.88013983  0.06054059  1.0
  Ni  Ni147  1  0.38645400  0.21347317  0.06054059  1.0
  Ni  Ni148  1  0.38645400  0.54680650  0.06054059  1.0
  Ni  Ni149  1  0.38645400  0.88013983  0.06054059  1.0
  Ni  Ni150  1  0.71978733  0.21347317  0.06054059  1.0
  Ni  Ni151  1  0.71978733  0.54680650  0.06054059  1.0
  Ni  Ni152  1  0.71978733  0.88013983  0.06054059  1.0
  Ni  Ni153  1  0.05312067  0.11986017  0.07038328  1.0
  Ni  Ni154  1  0.05312067  0.45319350  0.07038328  1.0
  Ni  Ni155  1  0.05312067  0.78652683  0.07038328  1.0
  Ni  Ni156  1  0.38645400  0.11986017  0.07038328  1.0
  Ni  Ni157  1  0.38645400  0.45319350  0.07038328  1.0
  Ni  Ni158  1  0.38645400  0.78652683  0.07038328  1.0
  Ni  Ni159  1  0.71978733  0.11986017  0.07038328  1.0
  Ni  Ni160  1  0.71978733  0.45319350  0.07038328  1.0
  Ni  Ni161  1  0.71978733  0.78652683  0.07038328  1.0
  Ti  Ti162  1  0.32730233  0.22222222  0.23048816  1.0
  Ti  Ti163  1  0.32730233  0.55555556  0.23048816  1.0
  Ti  Ti164  1  0.32730233  0.88888889  0.23048816  1.0
  Ti  Ti165  1  0.66063567  0.22222222  0.23048816  1.0
  Ti  Ti166  1  0.66063567  0.55555556  0.23048816  1.0
  Ti  Ti167  1  0.66063567  0.88888889  0.23048816  1.0
  Ti  Ti168  1  0.99396900  0.22222222  0.23048816  1.0
  Ti  Ti169  1  0.99396900  0.55555556  0.23048816  1.0
  Ti  Ti170  1  0.99396900  0.88888889  0.23048816  1.0
  Ti  Ti171  1  0.02141933  0.00000000  0.23048816  1.0
  Ti  Ti172  1  0.02141933  0.33333333  0.23048816  1.0
  Ti  Ti173  1  0.02141933  0.66666667  0.23048816  1.0
  Ti  Ti174  1  0.35475267  0.00000000  0.23048816  1.0
  Ti  Ti175  1  0.35475267  0.33333333  0.23048816  1.0
  Ti  Ti176  1  0.35475267  0.66666667  0.23048816  1.0
  Ti  Ti177  1  0.68808600  0.00000000  0.23048816  1.0
  Ti  Ti178  1  0.68808600  0.33333333  0.23048816  1.0
  Ti  Ti179  1  0.68808600  0.66666667  0.23048816  1.0
  Ti  Ti180  1  0.32730233  0.11111111  0.23048816  1.0
  Ti  Ti181  1  0.32730233  0.44444444  0.23048816  1.0
  Ti  Ti182  1  0.32730233  0.77777778  0.23048816  1.0
  Ti  Ti183  1  0.66063567  0.11111111  0.23048816  1.0
  Ti  Ti184  1  0.66063567  0.44444444  0.23048816  1.0
  Ti  Ti185  1  0.66063567  0.77777778  0.23048816  1.0
  Ti  Ti186  1  0.99396900  0.11111111  0.23048816  1.0
  Ti  Ti187  1  0.99396900  0.44444444  0.23048816  1.0
  Ti  Ti188  1  0.99396900  0.77777778  0.23048816  1.0
  Ti  Ti189  1  0.12150633  0.10492283  0.14483422  1.0
  Ti  Ti190  1  0.12150633  0.43825617  0.14483422  1.0
  Ti  Ti191  1  0.12150633  0.77158950  0.14483422  1.0
  Ti  Ti192  1  0.45483967  0.10492283  0.14483422  1.0
  Ti  Ti193  1  0.45483967  0.43825617  0.14483422  1.0
  Ti  Ti194  1  0.45483967  0.77158950  0.14483422  1.0
  Ti  Ti195  1  0.78817300  0.10492283  0.14483422  1.0
  Ti  Ti196  1  0.78817300  0.43825617  0.14483422  1.0
  Ti  Ti197  1  0.78817300  0.77158950  0.14483422  1.0
  Ti  Ti198  1  0.12150633  0.22841050  0.15179603  1.0
  Ti  Ti199  1  0.12150633  0.56174383  0.15179603  1.0
  Ti  Ti200  1  0.12150633  0.89507717  0.15179603  1.0
  Ti  Ti201  1  0.45483967  0.22841050  0.15179603  1.0
  Ti  Ti202  1  0.45483967  0.56174383  0.15179603  1.0
  Ti  Ti203  1  0.45483967  0.89507717  0.15179603  1.0
  Ti  Ti204  1  0.78817300  0.22841050  0.15179603  1.0
  Ti  Ti205  1  0.78817300  0.56174383  0.15179603  1.0
  Ti  Ti206  1  0.78817300  0.89507717  0.15179603  1.0
  Ti  Ti207  1  0.12150633  0.00000000  0.14483422  1.0
  Ti  Ti208  1  0.12150633  0.33333333  0.14483422  1.0
  Ti  Ti209  1  0.12150633  0.66666667  0.14483422  1.0
  Ti  Ti210  1  0.45483967  0.00000000  0.14483422  1.0
  Ti  Ti211  1  0.45483967  0.33333333  0.14483422  1.0
  Ti  Ti212  1  0.45483967  0.66666667  0.14483422  1.0
  Ti  Ti213  1  0.78817300  0.00000000  0.14483422  1.0
  Ti  Ti214  1  0.78817300  0.33333333  0.14483422  1.0
  Ti  Ti215  1  0.78817300  0.66666667  0.14483422  1.0
  Ti  Ti216  1  0.22231833  0.00000000  0.18727134  1.0
  Ti  Ti217  1  0.22231833  0.33333333  0.18727134  1.0
  Ti  Ti218  1  0.22231833  0.66666667  0.18727134  1.0
  Ti  Ti219  1  0.55565167  0.00000000  0.18727134  1.0
  Ti  Ti220  1  0.55565167  0.33333333  0.18727134  1.0
  Ti  Ti221  1  0.55565167  0.66666667  0.18727134  1.0
  Ti  Ti222  1  0.88898500  0.00000000  0.18727134  1.0
  Ti  Ti223  1  0.88898500  0.33333333  0.18727134  1.0
  Ti  Ti224  1  0.88898500  0.66666667  0.18727134  1.0
  Ti  Ti225  1  0.22231833  0.21808850  0.18727134  1.0
  Ti  Ti226  1  0.22231833  0.55142183  0.18727134  1.0
  Ti  Ti227  1  0.22231833  0.88475517  0.18727134  1.0
  Ti  Ti228  1  0.55565167  0.21808850  0.18727134  1.0
  Ti  Ti229  1  0.55565167  0.55142183  0.18727134  1.0
  Ti  Ti230  1  0.55565167  0.88475517  0.18727134  1.0
  Ti  Ti231  1  0.88898500  0.21808850  0.18727134  1.0
  Ti  Ti232  1  0.88898500  0.55142183  0.18727134  1.0
  Ti  Ti233  1  0.88898500  0.88475517  0.18727134  1.0
  Ti  Ti234  1  0.22231833  0.11524483  0.19192178  1.0
  Ti  Ti235  1  0.22231833  0.44857817  0.19192178  1.0
  Ti  Ti236  1  0.22231833  0.78191150  0.19192178  1.0
  Ti  Ti237  1  0.55565167  0.11524483  0.19192178  1.0
  Ti  Ti238  1  0.55565167  0.44857817  0.19192178  1.0
  Ti  Ti239  1  0.55565167  0.78191150  0.19192178  1.0
  Ti  Ti240  1  0.88898500  0.11524483  0.19192178  1.0
  Ti  Ti241  1  0.88898500  0.44857817  0.19192178  1.0
  Ti  Ti242  1  0.88898500  0.78191150  0.19192178  1.0
  Ni  Ni243  1  0.14733000  0.22222222  0.23048816  1.0
  Ni  Ni244  1  0.14733000  0.55555556  0.23048816  1.0
  Ni  Ni245  1  0.14733000  0.88888889  0.23048816  1.0
  Ni  Ni246  1  0.48066333  0.22222222  0.23048816  1.0
  Ni  Ni247  1  0.48066333  0.55555556  0.23048816  1.0
  Ni  Ni248  1  0.48066333  0.88888889  0.23048816  1.0
  Ni  Ni249  1  0.81399667  0.22222222  0.23048816  1.0
  Ni  Ni250  1  0.81399667  0.55555556  0.23048816  1.0
  Ni  Ni251  1  0.81399667  0.88888889  0.23048816  1.0
  Ni  Ni252  1  0.20518600  0.00000000  0.23048816  1.0
  Ni  Ni253  1  0.20518600  0.33333333  0.23048816  1.0
  Ni  Ni254  1  0.20518600  0.66666667  0.23048816  1.0
  Ni  Ni255  1  0.53851933  0.00000000  0.23048816  1.0
  Ni  Ni256  1  0.53851933  0.33333333  0.23048816  1.0
  Ni  Ni257  1  0.53851933  0.66666667  0.23048816  1.0
  Ni  Ni258  1  0.87185267  0.00000000  0.23048816  1.0
  Ni  Ni259  1  0.87185267  0.33333333  0.23048816  1.0
  Ni  Ni260  1  0.87185267  0.66666667  0.23048816  1.0
  Ni  Ni261  1  0.14733000  0.11111111  0.23048816  1.0
  Ni  Ni262  1  0.14733000  0.44444444  0.23048816  1.0
  Ni  Ni263  1  0.14733000  0.77777778  0.23048816  1.0
  Ni  Ni264  1  0.48066333  0.11111111  0.23048816  1.0
  Ni  Ni265  1  0.48066333  0.44444444  0.23048816  1.0
  Ni  Ni266  1  0.48066333  0.77777778  0.23048816  1.0
  Ni  Ni267  1  0.81399667  0.11111111  0.23048816  1.0
  Ni  Ni268  1  0.81399667  0.44444444  0.23048816  1.0
  Ni  Ni269  1  0.81399667  0.77777778  0.23048816  1.0
  Ni  Ni270  1  0.29361200  0.10406317  0.14451184  1.0
  Ni  Ni271  1  0.29361200  0.43739650  0.14451184  1.0
  Ni  Ni272  1  0.29361200  0.77072983  0.14451184  1.0
  Ni  Ni273  1  0.62694533  0.10406317  0.14451184  1.0
  Ni  Ni274  1  0.62694533  0.43739650  0.14451184  1.0
  Ni  Ni275  1  0.62694533  0.77072983  0.14451184  1.0
  Ni  Ni276  1  0.96027867  0.10406317  0.14451184  1.0
  Ni  Ni277  1  0.96027867  0.43739650  0.14451184  1.0
  Ni  Ni278  1  0.96027867  0.77072983  0.14451184  1.0
  Ni  Ni279  1  0.29361200  0.22927017  0.15244078  1.0
  Ni  Ni280  1  0.29361200  0.56260350  0.15244078  1.0
  Ni  Ni281  1  0.29361200  0.89593683  0.15244078  1.0
  Ni  Ni282  1  0.62694533  0.22927017  0.15244078  1.0
  Ni  Ni283  1  0.62694533  0.56260350  0.15244078  1.0
  Ni  Ni284  1  0.62694533  0.89593683  0.15244078  1.0
  Ni  Ni285  1  0.96027867  0.22927017  0.15244078  1.0
  Ni  Ni286  1  0.96027867  0.56260350  0.15244078  1.0
  Ni  Ni287  1  0.96027867  0.89593683  0.15244078  1.0
  Ni  Ni288  1  0.29361200  0.00000000  0.14451184  1.0
  Ni  Ni289  1  0.29361200  0.33333333  0.14451184  1.0
  Ni  Ni290  1  0.29361200  0.66666667  0.14451184  1.0
  Ni  Ni291  1  0.62694533  0.00000000  0.14451184  1.0
  Ni  Ni292  1  0.62694533  0.33333333  0.14451184  1.0
  Ni  Ni293  1  0.62694533  0.66666667  0.14451184  1.0
  Ni  Ni294  1  0.96027867  0.00000000  0.14451184  1.0
  Ni  Ni295  1  0.96027867  0.33333333  0.14451184  1.0
  Ni  Ni296  1  0.96027867  0.66666667  0.14451184  1.0
  Ni  Ni297  1  0.05312067  0.00000000  0.18554059  1.0
  Ni  Ni298  1  0.05312067  0.33333333  0.18554059  1.0
  Ni  Ni299  1  0.05312067  0.66666667  0.18554059  1.0
  Ni  Ni300  1  0.38645400  0.00000000  0.18554059  1.0
  Ni  Ni301  1  0.38645400  0.33333333  0.18554059  1.0
  Ni  Ni302  1  0.38645400  0.66666667  0.18554059  1.0
  Ni  Ni303  1  0.71978733  0.00000000  0.18554059  1.0
  Ni  Ni304  1  0.71978733  0.33333333  0.18554059  1.0
  Ni  Ni305  1  0.71978733  0.66666667  0.18554059  1.0
  Ni  Ni306  1  0.05312067  0.21347317  0.18554059  1.0
  Ni  Ni307  1  0.05312067  0.54680650  0.18554059  1.0
  Ni  Ni308  1  0.05312067  0.88013983  0.18554059  1.0
  Ni  Ni309  1  0.38645400  0.21347317  0.18554059  1.0
  Ni  Ni310  1  0.38645400  0.54680650  0.18554059  1.0
  Ni  Ni311  1  0.38645400  0.88013983  0.18554059  1.0
  Ni  Ni312  1  0.71978733  0.21347317  0.18554059  1.0
  Ni  Ni313  1  0.71978733  0.54680650  0.18554059  1.0
  Ni  Ni314  1  0.71978733  0.88013983  0.18554059  1.0
  Ni  Ni315  1  0.05312067  0.11986017  0.19538328  1.0
  Ni  Ni316  1  0.05312067  0.45319350  0.19538328  1.0
  Ni  Ni317  1  0.05312067  0.78652683  0.19538328  1.0
  Ni  Ni318  1  0.38645400  0.11986017  0.19538328  1.0
  Ni  Ni319  1  0.38645400  0.45319350  0.19538328  1.0
  Ni  Ni320  1  0.38645400  0.78652683  0.19538328  1.0
  Ni  Ni321  1  0.71978733  0.11986017  0.19538328  1.0
  Ni  Ni322  1  0.71978733  0.45319350  0.19538328  1.0
  Ni  Ni323  1  0.71978733  0.78652683  0.19538328  1.0
  Ti  Ti324  1  0.32730233  0.22222222  0.35548816  1.0
  Ti  Ti325  1  0.32730233  0.55555556  0.35548816  1.0
  Ti  Ti326  1  0.32730233  0.88888889  0.35548816  1.0
  Ti  Ti327  1  0.66063567  0.22222222  0.35548816  1.0
  Ti  Ti328  1  0.66063567  0.55555556  0.35548816  1.0
  Ti  Ti329  1  0.66063567  0.88888889  0.35548816  1.0
  Ti  Ti330  1  0.99396900  0.22222222  0.35548816  1.0
  Ti  Ti331  1  0.99396900  0.55555556  0.35548816  1.0
  Ti  Ti332  1  0.99396900  0.88888889  0.35548816  1.0
  Ti  Ti333  1  0.02141933  0.00000000  0.35548816  1.0
  Ti  Ti334  1  0.02141933  0.33333333  0.35548816  1.0
  Ti  Ti335  1  0.02141933  0.66666667  0.35548816  1.0
  Ti  Ti336  1  0.35475267  0.00000000  0.35548816  1.0
  Ti  Ti337  1  0.35475267  0.33333333  0.35548816  1.0
  Ti  Ti338  1  0.35475267  0.66666667  0.35548816  1.0
  Ti  Ti339  1  0.68808600  0.00000000  0.35548816  1.0
  Ti  Ti340  1  0.68808600  0.33333333  0.35548816  1.0
  Ti  Ti341  1  0.68808600  0.66666667  0.35548816  1.0
  Ti  Ti342  1  0.32730233  0.11111111  0.35548816  1.0
  Ti  Ti343  1  0.32730233  0.44444444  0.35548816  1.0
  Ti  Ti344  1  0.32730233  0.77777778  0.35548816  1.0
  Ti  Ti345  1  0.66063567  0.11111111  0.35548816  1.0
  Ti  Ti346  1  0.66063567  0.44444444  0.35548816  1.0
  Ti  Ti347  1  0.66063567  0.77777778  0.35548816  1.0
  Ti  Ti348  1  0.99396900  0.11111111  0.35548816  1.0
  Ti  Ti349  1  0.99396900  0.44444444  0.35548816  1.0
  Ti  Ti350  1  0.99396900  0.77777778  0.35548816  1.0
  Ti  Ti351  1  0.12150633  0.10492283  0.26983422  1.0
  Ti  Ti352  1  0.12150633  0.43825617  0.26983422  1.0
  Ti  Ti353  1  0.12150633  0.77158950  0.26983422  1.0
  Ti  Ti354  1  0.45483967  0.10492283  0.26983422  1.0
  Ti  Ti355  1  0.45483967  0.43825617  0.26983422  1.0
  Ti  Ti356  1  0.45483967  0.77158950  0.26983422  1.0
  Ti  Ti357  1  0.78817300  0.10492283  0.26983422  1.0
  Ti  Ti358  1  0.78817300  0.43825617  0.26983422  1.0
  Ti  Ti359  1  0.78817300  0.77158950  0.26983422  1.0
  Ti  Ti360  1  0.12150633  0.22841050  0.27679603  1.0
  Ti  Ti361  1  0.12150633  0.56174383  0.27679603  1.0
  Ti  Ti362  1  0.12150633  0.89507717  0.27679603  1.0
  Ti  Ti363  1  0.45483967  0.22841050  0.27679603  1.0
  Ti  Ti364  1  0.45483967  0.56174383  0.27679603  1.0
  Ti  Ti365  1  0.45483967  0.89507717  0.27679603  1.0
  Ti  Ti366  1  0.78817300  0.22841050  0.27679603  1.0
  Ti  Ti367  1  0.78817300  0.56174383  0.27679603  1.0
  Ti  Ti368  1  0.78817300  0.89507717  0.27679603  1.0
  Ti  Ti369  1  0.12150633  0.00000000  0.26983422  1.0
  Ti  Ti370  1  0.12150633  0.33333333  0.26983422  1.0
  Ti  Ti371  1  0.12150633  0.66666667  0.26983422  1.0
  Ti  Ti372  1  0.45483967  0.00000000  0.26983422  1.0
  Ti  Ti373  1  0.45483967  0.33333333  0.26983422  1.0
  Ti  Ti374  1  0.45483967  0.66666667  0.26983422  1.0
  Ti  Ti375  1  0.78817300  0.00000000  0.26983422  1.0
  Ti  Ti376  1  0.78817300  0.33333333  0.26983422  1.0
  Ti  Ti377  1  0.78817300  0.66666667  0.26983422  1.0
  Ti  Ti378  1  0.22231833  0.00000000  0.31227134  1.0
  Ti  Ti379  1  0.22231833  0.33333333  0.31227134  1.0
  Ti  Ti380  1  0.22231833  0.66666667  0.31227134  1.0
  Ti  Ti381  1  0.55565167  0.00000000  0.31227134  1.0
  Ti  Ti382  1  0.55565167  0.33333333  0.31227134  1.0
  Ti  Ti383  1  0.55565167  0.66666667  0.31227134  1.0
  Ti  Ti384  1  0.88898500  0.00000000  0.31227134  1.0
  Ti  Ti385  1  0.88898500  0.33333333  0.31227134  1.0
  Ti  Ti386  1  0.88898500  0.66666667  0.31227134  1.0
  Ti  Ti387  1  0.22231833  0.21808850  0.31227134  1.0
  Ti  Ti388  1  0.22231833  0.55142183  0.31227134  1.0
  Ti  Ti389  1  0.22231833  0.88475517  0.31227134  1.0
  Ti  Ti390  1  0.55565167  0.21808850  0.31227134  1.0
  Ti  Ti391  1  0.55565167  0.55142183  0.31227134  1.0
  Ti  Ti392  1  0.55565167  0.88475517  0.31227134  1.0
  Ti  Ti393  1  0.88898500  0.21808850  0.31227134  1.0
  Ti  Ti394  1  0.88898500  0.55142183  0.31227134  1.0
  Ti  Ti395  1  0.88898500  0.88475517  0.31227134  1.0
  Ti  Ti396  1  0.22231833  0.11524483  0.31692178  1.0
  Ti  Ti397  1  0.22231833  0.44857817  0.31692178  1.0
  Ti  Ti398  1  0.22231833  0.78191150  0.31692178  1.0
  Ti  Ti399  1  0.55565167  0.11524483  0.31692178  1.0
  Ti  Ti400  1  0.55565167  0.44857817  0.31692178  1.0
  Ti  Ti401  1  0.55565167  0.78191150  0.31692178  1.0
  Ti  Ti402  1  0.88898500  0.11524483  0.31692178  1.0
  Ti  Ti403  1  0.88898500  0.44857817  0.31692178  1.0
  Ti  Ti404  1  0.88898500  0.78191150  0.31692178  1.0
  Ni  Ni405  1  0.14733000  0.22222222  0.35548816  1.0
  Ni  Ni406  1  0.14733000  0.55555556  0.35548816  1.0
  Ni  Ni407  1  0.14733000  0.88888889  0.35548816  1.0
  Ni  Ni408  1  0.48066333  0.22222222  0.35548816  1.0
  Ni  Ni409  1  0.48066333  0.55555556  0.35548816  1.0
  Ni  Ni410  1  0.48066333  0.88888889  0.35548816  1.0
  Ni  Ni411  1  0.81399667  0.22222222  0.35548816  1.0
  Ni  Ni412  1  0.81399667  0.55555556  0.35548816  1.0
  Ni  Ni413  1  0.81399667  0.88888889  0.35548816  1.0
  Ni  Ni414  1  0.20518600  0.00000000  0.35548816  1.0
  Ni  Ni415  1  0.20518600  0.33333333  0.35548816  1.0
  Ni  Ni416  1  0.20518600  0.66666667  0.35548816  1.0
  Ni  Ni417  1  0.53851933  0.00000000  0.35548816  1.0
  Ni  Ni418  1  0.53851933  0.33333333  0.35548816  1.0
  Ni  Ni419  1  0.53851933  0.66666667  0.35548816  1.0
  Ni  Ni420  1  0.87185267  0.00000000  0.35548816  1.0
  Ni  Ni421  1  0.87185267  0.33333333  0.35548816  1.0
  Ni  Ni422  1  0.87185267  0.66666667  0.35548816  1.0
  Ni  Ni423  1  0.14733000  0.11111111  0.35548816  1.0
  Ni  Ni424  1  0.14733000  0.44444444  0.35548816  1.0
  Ni  Ni425  1  0.14733000  0.77777778  0.35548816  1.0
  Ni  Ni426  1  0.48066333  0.11111111  0.35548816  1.0
  Ni  Ni427  1  0.48066333  0.44444444  0.35548816  1.0
  Ni  Ni428  1  0.48066333  0.77777778  0.35548816  1.0
  Ni  Ni429  1  0.81399667  0.11111111  0.35548816  1.0
  Ni  Ni430  1  0.81399667  0.44444444  0.35548816  1.0
  Ni  Ni431  1  0.81399667  0.77777778  0.35548816  1.0
  Ni  Ni432  1  0.29361200  0.10406317  0.26951184  1.0
  Ni  Ni433  1  0.29361200  0.43739650  0.26951184  1.0
  Ni  Ni434  1  0.29361200  0.77072983  0.26951184  1.0
  Ni  Ni435  1  0.62694533  0.10406317  0.26951184  1.0
  Ni  Ni436  1  0.62694533  0.43739650  0.26951184  1.0
  Ni  Ni437  1  0.62694533  0.77072983  0.26951184  1.0
  Ni  Ni438  1  0.96027867  0.10406317  0.26951184  1.0
  Ni  Ni439  1  0.96027867  0.43739650  0.26951184  1.0
  Ni  Ni440  1  0.96027867  0.77072983  0.26951184  1.0
  Ni  Ni441  1  0.29361200  0.22927017  0.27744078  1.0
  Ni  Ni442  1  0.29361200  0.56260350  0.27744078  1.0
  Ni  Ni443  1  0.29361200  0.89593683  0.27744078  1.0
  Ni  Ni444  1  0.62694533  0.22927017  0.27744078  1.0
  Ni  Ni445  1  0.62694533  0.56260350  0.27744078  1.0
  Ni  Ni446  1  0.62694533  0.89593683  0.27744078  1.0
  Ni  Ni447  1  0.96027867  0.22927017  0.27744078  1.0
  Ni  Ni448  1  0.96027867  0.56260350  0.27744078  1.0
  Ni  Ni449  1  0.96027867  0.89593683  0.27744078  1.0
  Ni  Ni450  1  0.29361200  0.00000000  0.26951184  1.0
  Ni  Ni451  1  0.29361200  0.33333333  0.26951184  1.0
  Ni  Ni452  1  0.29361200  0.66666667  0.26951184  1.0
  Ni  Ni453  1  0.62694533  0.00000000  0.26951184  1.0
  Ni  Ni454  1  0.62694533  0.33333333  0.26951184  1.0
  Ni  Ni455  1  0.62694533  0.66666667  0.26951184  1.0
  Ni  Ni456  1  0.96027867  0.00000000  0.26951184  1.0
  Ni  Ni457  1  0.96027867  0.33333333  0.26951184  1.0
  Ni  Ni458  1  0.96027867  0.66666667  0.26951184  1.0
  Ni  Ni459  1  0.05312067  0.00000000  0.31054059  1.0
  Ni  Ni460  1  0.05312067  0.33333333  0.31054059  1.0
  Ni  Ni461  1  0.05312067  0.66666667  0.31054059  1.0
  Ni  Ni462  1  0.38645400  0.00000000  0.31054059  1.0
  Ni  Ni463  1  0.38645400  0.33333333  0.31054059  1.0
  Ni  Ni464  1  0.38645400  0.66666667  0.31054059  1.0
  Ni  Ni465  1  0.71978733  0.00000000  0.31054059  1.0
  Ni  Ni466  1  0.71978733  0.33333333  0.31054059  1.0
  Ni  Ni467  1  0.71978733  0.66666667  0.31054059  1.0
  Ni  Ni468  1  0.05312067  0.21347317  0.31054059  1.0
  Ni  Ni469  1  0.05312067  0.54680650  0.31054059  1.0
  Ni  Ni470  1  0.05312067  0.88013983  0.31054059  1.0
  Ni  Ni471  1  0.38645400  0.21347317  0.31054059  1.0
  Ni  Ni472  1  0.38645400  0.54680650  0.31054059  1.0
  Ni  Ni473  1  0.38645400  0.88013983  0.31054059  1.0
  Ni  Ni474  1  0.71978733  0.21347317  0.31054059  1.0
  Ni  Ni475  1  0.71978733  0.54680650  0.31054059  1.0
  Ni  Ni476  1  0.71978733  0.88013983  0.31054059  1.0
  Ni  Ni477  1  0.05312067  0.11986017  0.32038328  1.0
  Ni  Ni478  1  0.05312067  0.45319350  0.32038328  1.0
  Ni  Ni479  1  0.05312067  0.78652683  0.32038328  1.0
  Ni  Ni480  1  0.38645400  0.11986017  0.32038328  1.0
  Ni  Ni481  1  0.38645400  0.45319350  0.32038328  1.0
  Ni  Ni482  1  0.38645400  0.78652683  0.32038328  1.0
  Ni  Ni483  1  0.71978733  0.11986017  0.32038328  1.0
  Ni  Ni484  1  0.71978733  0.45319350  0.32038328  1.0
  Ni  Ni485  1  0.71978733  0.78652683  0.32038328  1.0
