# generated using pymatgen
data_TiNi
_symmetry_space_group_name_H-M   'P 1'
_cell_length_a   15.17574187
_cell_length_b   16.01430696
_cell_length_c   35.63810900
_cell_angle_alpha   120.90071614
_cell_angle_beta   122.81507073
_cell_angle_gamma   73.84070205
_symmetry_Int_Tables_number   1
_chemical_formula_structural   TiNi
_chemical_formula_sum   'Ti90 Ni90'
_cell_volume   6245.80057705
_cell_formula_units_Z   90
loop_
 _symmetry_equiv_pos_site_id
 _symmetry_equiv_pos_as_xyz
  1  'x, y, z'
loop_
 _atom_site_type_symbol
 _atom_site_label
 _atom_site_symmetry_multiplicity
 _atom_site_fract_x
 _atom_site_fract_y
 _atom_site_fract_z
 _atom_site_occupancy
  Ti  Ti0  1  0.25000000  0.09422500  0.04097500  1.0
  Ti  Ti1  1  0.25000000  0.42755833  0.04097500  1.0
  Ti  Ti2  1  0.25000000  0.76089167  0.04097500  1.0
  Ti  Ti3  1  0.58333333  0.09422500  0.04097500  1.0
  Ti  Ti4  1  0.58333333  0.42755833  0.04097500  1.0
  Ti  Ti5  1  0.58333333  0.76089167  0.04097500  1.0
  Ti  Ti6  1  0.91666667  0.09422500  0.04097500  1.0
  Ti  Ti7  1  0.91666667  0.42755833  0.04097500  1.0
  Ti  Ti8  1  0.91666667  0.76089167  0.04097500  1.0
  Ti  Ti9  1  0.08333333  0.23910833  0.03594808  1.0
  Ti  Ti10  1  0.08333333  0.57244167  0.03594808  1.0
  Ti  Ti11  1  0.08333333  0.90577500  0.03594808  1.0
  Ti  Ti12  1  0.41666667  0.23910833  0.03594808  1.0
  Ti  Ti13  1  0.41666667  0.57244167  0.03594808  1.0
  Ti  Ti14  1  0.41666667  0.90577500  0.03594808  1.0
  Ti  Ti15  1  0.75000000  0.23910833  0.03594808  1.0
  Ti  Ti16  1  0.75000000  0.57244167  0.03594808  1.0
  Ti  Ti17  1  0.75000000  0.90577500  0.03594808  1.0
  Ni  Ni18  1  0.25000000  0.26994900  0.04306515  1.0
  Ni  Ni19  1  0.25000000  0.60328233  0.04306515  1.0
  Ni  Ni20  1  0.25000000  0.93661567  0.04306515  1.0
  Ni  Ni21  1  0.58333333  0.26994900  0.04306515  1.0
  Ni  Ni22  1  0.58333333  0.60328233  0.04306515  1.0
  Ni  Ni23  1  0.58333333  0.93661567  0.04306515  1.0
  Ni  Ni24  1  0.91666667  0.26994900  0.04306515  1.0
  Ni  Ni25  1  0.91666667  0.60328233  0.04306515  1.0
  Ni  Ni26  1  0.91666667  0.93661567  0.04306515  1.0
  Ni  Ni27  1  0.08333333  0.06338433  0.03385792  1.0
  Ni  Ni28  1  0.08333333  0.39671767  0.03385792  1.0
  Ni  Ni29  1  0.08333333  0.73005100  0.03385792  1.0
  Ni  Ni30  1  0.41666667  0.06338433  0.03385792  1.0
  Ni  Ni31  1  0.41666667  0.39671767  0.03385792  1.0
  Ni  Ni32  1  0.41666667  0.73005100  0.03385792  1.0
  Ni  Ni33  1  0.75000000  0.06338433  0.03385792  1.0
  Ni  Ni34  1  0.75000000  0.39671767  0.03385792  1.0
  Ni  Ni35  1  0.75000000  0.73005100  0.03385792  1.0
  Ti  Ti36  1  0.25000000  0.09422500  0.11789808  1.0
  Ti  Ti37  1  0.25000000  0.42755833  0.11789808  1.0
  Ti  Ti38  1  0.25000000  0.76089167  0.11789808  1.0
  Ti  Ti39  1  0.58333333  0.09422500  0.11789808  1.0
  Ti  Ti40  1  0.58333333  0.42755833  0.11789808  1.0
  Ti  Ti41  1  0.58333333  0.76089167  0.11789808  1.0
  Ti  Ti42  1  0.91666667  0.09422500  0.11789808  1.0
  Ti  Ti43  1  0.91666667  0.42755833  0.11789808  1.0
  Ti  Ti44  1  0.91666667  0.76089167  0.11789808  1.0
  Ti  Ti45  1  0.08333333  0.23910833  0.11287115  1.0
  Ti  Ti46  1  0.08333333  0.57244167  0.11287115  1.0
  Ti  Ti47  1  0.08333333  0.90577500  0.11287115  1.0
  Ti  Ti48  1  0.41666667  0.23910833  0.11287115  1.0
  Ti  Ti49  1  0.41666667  0.57244167  0.11287115  1.0
  Ti  Ti50  1  0.41666667  0.90577500  0.11287115  1.0
  Ti  Ti51  1  0.75000000  0.23910833  0.11287115  1.0
  Ti  Ti52  1  0.75000000  0.57244167  0.11287115  1.0
  Ti  Ti53  1  0.75000000  0.90577500  0.11287115  1.0
  Ni  Ni54  1  0.25000000  0.26994900  0.11998823  1.0
  Ni  Ni55  1  0.25000000  0.60328233  0.11998823  1.0
  Ni  Ni56  1  0.25000000  0.93661567  0.11998823  1.0
  Ni  Ni57  1  0.58333333  0.26994900  0.11998823  1.0
  Ni  Ni58  1  0.58333333  0.60328233  0.11998823  1.0
  Ni  Ni59  1  0.58333333  0.93661567  0.11998823  1.0
  Ni  Ni60  1  0.91666667  0.26994900  0.11998823  1.0
  Ni  Ni61  1  0.91666667  0.60328233  0.11998823  1.0
  Ni  Ni62  1  0.91666667  0.93661567  0.11998823  1.0
  Ni  Ni63  1  0.08333333  0.06338433  0.11078100  1.0
  Ni  Ni64  1  0.08333333  0.39671767  0.11078100  1.0
  Ni  Ni65  1  0.08333333  0.73005100  0.11078100  1.0
  Ni  Ni66  1  0.41666667  0.06338433  0.11078100  1.0
  Ni  Ni67  1  0.41666667  0.39671767  0.11078100  1.0
  Ni  Ni68  1  0.41666667  0.73005100  0.11078100  1.0
  Ni  Ni69  1  0.75000000  0.06338433  0.11078100  1.0
  Ni  Ni70  1  0.75000000  0.39671767  0.11078100  1.0
  Ni  Ni71  1  0.75000000  0.73005100  0.11078100  1.0
  Ti  Ti72  1  0.25000000  0.09422500  0.19482115  1.0
  Ti  Ti73  1  0.25000000  0.42755833  0.19482115  1.0
  Ti  Ti74  1  0.25000000  0.76089167  0.19482115  1.0
  Ti  Ti75  1  0.58333333  0.09422500  0.19482115  1.0
  Ti  Ti76  1  0.58333333  0.42755833  0.19482115  1.0
  Ti  Ti77  1  0.58333333  0.76089167  0.19482115  1.0
  Ti  Ti78  1  0.91666667  0.09422500  0.19482115  1.0
  Ti  Ti79  1  0.91666667  0.42755833  0.19482115  1.0
  Ti  Ti80  1  0.91666667  0.76089167  0.19482115  1.0
  Ti  Ti81  1  0.08333333  0.23910833  0.18979423  1.0
  Ti  Ti82  1  0.08333333  0.57244167  0.18979423  1.0
  Ti  Ti83  1  0.08333333  0.90577500  0.18979423  1.0
  Ti  Ti84  1  0.41666667  0.23910833  0.18979423  1.0
  Ti  Ti85  1  0.41666667  0.57244167  0.18979423  1.0
  Ti  Ti86  1  0.41666667  0.90577500  0.18979423  1.0
  Ti  Ti87  1  0.75000000  0.23910833  0.18979423  1.0
  Ti  Ti88  1  0.75000000  0.57244167  0.18979423  1.0
  Ti  Ti89  1  0.75000000  0.90577500  0.18979423  1.0
  Ni  Ni90  1  0.25000000  0.26994900  0.19691131  1.0
  Ni  Ni91  1  0.25000000  0.60328233  0.19691131  1.0
  Ni  Ni92  1  0.25000000  0.93661567  0.19691131  1.0
  Ni  Ni93  1  0.58333333  0.26994900  0.19691131  1.0
  Ni  Ni94  1  0.58333333  0.60328233  0.19691131  1.0
  Ni  Ni95  1  0.58333333  0.93661567  0.19691131  1.0
  Ni  Ni96  1  0.91666667  0.26994900  0.19691131  1.0
  Ni  Ni97  1  0.91666667  0.60328233  0.19691131  1.0
  Ni  Ni98  1  0.91666667  0.93661567  0.19691131  1.0
  Ni  Ni99  1  0.08333333  0.06338433  0.18770408  1.0
  Ni  Ni100  1  0.08333333  0.39671767  0.18770408  1.0
  Ni  Ni101  1  0.08333333  0.73005100  0.18770408  1.0
  Ni  Ni102  1  0.41666667  0.06338433  0.18770408  1.0
  Ni  Ni103  1  0.41666667  0.39671767  0.18770408  1.0
  Ni  Ni104  1  0.41666667  0.73005100  0.18770408  1.0
  Ni  Ni105  1  0.75000000  0.06338433  0.18770408  1.0
  Ni  Ni106  1  0.75000000  0.39671767  0.18770408  1.0
  Ni  Ni107  1  0.75000000  0.73005100  0.18770408  1.0
  Ti  Ti108  1  0.25000000  0.09422500  0.27174423  1.0
  Ti  Ti109  1  0.25000000  0.42755833  0.27174423  1.0
  Ti  Ti110  1  0.25000000  0.76089167  0.27174423  1.0
  Ti  Ti111  1  0.58333333  0.09422500  0.27174423  1.0
  Ti  Ti112  1  0.58333333  0.42755833  0.27174423  1.0
  Ti  Ti113  1  0.58333333  0.76089167  0.27174423  1.0
  Ti  Ti114  1  0.91666667  0.09422500  0.27174423  1.0
  Ti  Ti115  1  0.91666667  0.42755833  0.27174423  1.0
  Ti  Ti116  1  0.91666667  0.76089167  0.27174423  1.0
  Ti  Ti117  1  0.08333333  0.23910833  0.26671731  1.0
  Ti  Ti118  1  0.08333333  0.57244167  0.26671731  1.0
  Ti  Ti119  1  0.08333333  0.90577500  0.26671731  1.0
  Ti  Ti120  1  0.41666667  0.23910833  0.26671731  1.0
  Ti  Ti121  1  0.41666667  0.57244167  0.26671731  1.0
  Ti  Ti122  1  0.41666667  0.90577500  0.26671731  1.0
  Ti  Ti123  1  0.75000000  0.23910833  0.26671731  1.0
  Ti  Ti124  1  0.75000000  0.57244167  0.26671731  1.0
  Ti  Ti125  1  0.75000000  0.90577500  0.26671731  1.0
  Ni  Ni126  1  0.25000000  0.26994900  0.27383438  1.0
  Ni  Ni127  1  0.25000000  0.60328233  0.27383438  1.0
  Ni  Ni128  1  0.25000000  0.93661567  0.27383438  1.0
  Ni  Ni129  1  0.58333333  0.26994900  0.27383438  1.0
  Ni  Ni130  1  0.58333333  0.60328233  0.27383438  1.0
  Ni  Ni131  1  0.58333333  0.93661567  0.27383438  1.0
  Ni  Ni132  1  0.91666667  0.26994900  0.27383438  1.0
  Ni  Ni133  1  0.91666667  0.60328233  0.27383438  1.0
  Ni  Ni134  1  0.91666667  0.93661567  0.27383438  1.0
  Ni  Ni135  1  0.08333333  0.06338433  0.26462715  1.0
  Ni  Ni136  1  0.08333333  0.39671767  0.26462715  1.0
  Ni  Ni137  1  0.08333333  0.73005100  0.26462715  1.0
  Ni  Ni138  1  0.41666667  0.06338433  0.26462715  1.0
  Ni  Ni139  1  0.41666667  0.39671767  0.26462715  1.0
  Ni  Ni140  1  0.41666667  0.73005100  0.26462715  1.0
  Ni  Ni141  1  0.75000000  0.06338433  0.26462715  1.0
  Ni  Ni142  1  0.75000000  0.39671767  0.26462715  1.0
  Ni  Ni143  1  0.75000000  0.73005100  0.26462715  1.0
  Ti  Ti144  1  0.25000000  0.09422500  0.34866731  1.0
  Ti  Ti145  1  0.25000000  0.42755833  0.34866731  1.0
  Ti  Ti146  1  0.25000000  0.76089167  0.34866731  1.0
  Ti  Ti147  1  0.58333333  0.09422500  0.34866731  1.0
  Ti  Ti148  1  0.58333333  0.42755833  0.34866731  1.0
  Ti  Ti149  1  0.58333333  0.76089167  0.34866731  1.0
  Ti  Ti150  1  0.91666667  0.09422500  0.34866731  1.0
  Ti  Ti151  1  0.91666667  0.42755833  0.34866731  1.0
  Ti  Ti152  1  0.91666667  0.76089167  0.34866731  1.0
  Ti  Ti153  1  0.08333333  0.23910833  0.34364038  1.0
  Ti  Ti154  1  0.08333333  0.57244167  0.34364038  1.0
  Ti  Ti155  1  0.08333333  0.90577500  0.34364038  1.0
  Ti  Ti156  1  0.41666667  0.23910833  0.34364038  1.0
  Ti  Ti157  1  0.41666667  0.57244167  0.34364038  1.0
  Ti  Ti158  1  0.41666667  0.90577500  0.34364038  1.0
  Ti  Ti159  1  0.75000000  0.23910833  0.34364038  1.0
  Ti  Ti160  1  0.75000000  0.57244167  0.34364038  1.0
  Ti  Ti161  1  0.75000000  0.90577500  0.34364038  1.0
  Ni  Ni162  1  0.25000000  0.26994900  0.35075746  1.0
  Ni  Ni163  1  0.25000000  0.60328233  0.35075746  1.0
  Ni  Ni164  1  0.25000000  0.93661567  0.35075746  1.0
  Ni  Ni165  1  0.58333333  0.26994900  0.35075746  1.0
  Ni  Ni166  1  0.58333333  0.60328233  0.35075746  1.0
  Ni  Ni167  1  0.58333333  0.93661567  0.35075746  1.0
  Ni  Ni168  1  0.91666667  0.26994900  0.35075746  1.0
  Ni  Ni169  1  0.91666667  0.60328233  0.35075746  1.0
  Ni  Ni170  1  0.91666667  0.93661567  0.35075746  1.0
  Ni  Ni171  1  0.08333333  0.06338433  0.34155023  1.0
  Ni  Ni172  1  0.08333333  0.39671767  0.34155023  1.0
  Ni  Ni173  1  0.08333333  0.73005100  0.34155023  1.0
  Ni  Ni174  1  0.41666667  0.06338433  0.34155023  1.0
  Ni  Ni175  1  0.41666667  0.39671767  0.34155023  1.0
  Ni  Ni176  1  0.41666667  0.73005100  0.34155023  1.0
  Ni  Ni177  1  0.75000000  0.06338433  0.34155023  1.0
  Ni  Ni178  1  0.75000000  0.39671767  0.34155023  1.0
  Ni  Ni179  1  0.75000000  0.73005100  0.34155023  1.0
