# generated using pymatgen
data_TiNi
_symmetry_space_group_name_H-M   'P 1'
_cell_length_a   8.21954700
_cell_length_b   78.03578714
_cell_length_c   32.83281750
_cell_angle_alpha   100.38234501
_cell_angle_beta   94.96047383
_cell_angle_gamma   89.19999833
_symmetry_Int_Tables_number   1
_chemical_formula_structural   TiNi
_chemical_formula_sum   'Ti324 Ni324'
_cell_volume   20637.16582806
_cell_formula_units_Z   324
loop_
 _symmetry_equiv_pos_site_id
 _symmetry_equiv_pos_as_xyz
  1  'x, y, z'
loop_
 _atom_site_type_symbol
 _atom_site_label
 _atom_site_symmetry_multiplicity
 _atom_site_fract_x
 _atom_site_fract_y
 _atom_site_fract_z
 _atom_site_occupancy
  Ti  Ti0  1  0.14071200  0.15293067  0.09054979  1.0
  Ti  Ti1  1  0.14071200  0.48626400  0.09054979  1.0
  Ti  Ti2  1  0.14071200  0.81959733  0.09054979  1.0
  Ti  Ti3  1  0.47404533  0.15293067  0.09054979  1.0
  Ti  Ti4  1  0.47404533  0.48626400  0.09054979  1.0
  Ti  Ti5  1  0.47404533  0.81959733  0.09054979  1.0
  Ti  Ti6  1  0.80737867  0.15293067  0.09054979  1.0
  Ti  Ti7  1  0.80737867  0.48626400  0.09054979  1.0
  Ti  Ti8  1  0.80737867  0.81959733  0.09054979  1.0
  Ti  Ti9  1  0.14071200  0.31959733  0.01912121  1.0
  Ti  Ti10  1  0.14071200  0.65293067  0.01912121  1.0
  Ti  Ti11  1  0.14071200  0.98626400  0.01912121  1.0
  Ti  Ti12  1  0.47404533  0.31959733  0.01912121  1.0
  Ti  Ti13  1  0.47404533  0.65293067  0.01912121  1.0
  Ti  Ti14  1  0.47404533  0.98626400  0.01912121  1.0
  Ti  Ti15  1  0.80737867  0.31959733  0.01912121  1.0
  Ti  Ti16  1  0.80737867  0.65293067  0.01912121  1.0
  Ti  Ti17  1  0.80737867  0.98626400  0.01912121  1.0
  Ti  Ti18  1  0.19262133  0.01373600  0.11582950  1.0
  Ti  Ti19  1  0.19262133  0.34706933  0.11582950  1.0
  Ti  Ti20  1  0.19262133  0.68040267  0.11582950  1.0
  Ti  Ti21  1  0.52595467  0.01373600  0.11582950  1.0
  Ti  Ti22  1  0.52595467  0.34706933  0.11582950  1.0
  Ti  Ti23  1  0.52595467  0.68040267  0.11582950  1.0
  Ti  Ti24  1  0.85928800  0.01373600  0.11582950  1.0
  Ti  Ti25  1  0.85928800  0.34706933  0.11582950  1.0
  Ti  Ti26  1  0.85928800  0.68040267  0.11582950  1.0
  Ti  Ti27  1  0.19262133  0.18040267  0.04440093  1.0
  Ti  Ti28  1  0.19262133  0.51373600  0.04440093  1.0
  Ti  Ti29  1  0.19262133  0.84706933  0.04440093  1.0
  Ti  Ti30  1  0.52595467  0.18040267  0.04440093  1.0
  Ti  Ti31  1  0.52595467  0.51373600  0.04440093  1.0
  Ti  Ti32  1  0.52595467  0.84706933  0.04440093  1.0
  Ti  Ti33  1  0.85928800  0.18040267  0.04440093  1.0
  Ti  Ti34  1  0.85928800  0.51373600  0.04440093  1.0
  Ti  Ti35  1  0.85928800  0.84706933  0.04440093  1.0
  Ti  Ti36  1  0.17366000  0.12480267  0.01750079  1.0
  Ti  Ti37  1  0.17366000  0.45813600  0.01750079  1.0
  Ti  Ti38  1  0.17366000  0.79146933  0.01750079  1.0
  Ti  Ti39  1  0.50699333  0.12480267  0.01750079  1.0
  Ti  Ti40  1  0.50699333  0.45813600  0.01750079  1.0
  Ti  Ti41  1  0.50699333  0.79146933  0.01750079  1.0
  Ti  Ti42  1  0.84032667  0.12480267  0.01750079  1.0
  Ti  Ti43  1  0.84032667  0.45813600  0.01750079  1.0
  Ti  Ti44  1  0.84032667  0.79146933  0.01750079  1.0
  Ti  Ti45  1  0.17366000  0.29146933  0.08892936  1.0
  Ti  Ti46  1  0.17366000  0.62480267  0.08892936  1.0
  Ti  Ti47  1  0.17366000  0.95813600  0.08892936  1.0
  Ti  Ti48  1  0.50699333  0.29146933  0.08892936  1.0
  Ti  Ti49  1  0.50699333  0.62480267  0.08892936  1.0
  Ti  Ti50  1  0.50699333  0.95813600  0.08892936  1.0
  Ti  Ti51  1  0.84032667  0.29146933  0.08892936  1.0
  Ti  Ti52  1  0.84032667  0.62480267  0.08892936  1.0
  Ti  Ti53  1  0.84032667  0.95813600  0.08892936  1.0
  Ti  Ti54  1  0.19791433  0.06915167  0.14069807  1.0
  Ti  Ti55  1  0.19791433  0.40248500  0.14069807  1.0
  Ti  Ti56  1  0.19791433  0.73581833  0.14069807  1.0
  Ti  Ti57  1  0.53124767  0.06915167  0.14069807  1.0
  Ti  Ti58  1  0.53124767  0.40248500  0.14069807  1.0
  Ti  Ti59  1  0.53124767  0.73581833  0.14069807  1.0
  Ti  Ti60  1  0.86458100  0.06915167  0.14069807  1.0
  Ti  Ti61  1  0.86458100  0.40248500  0.14069807  1.0
  Ti  Ti62  1  0.86458100  0.73581833  0.14069807  1.0
  Ti  Ti63  1  0.19791433  0.23581833  0.06926950  1.0
  Ti  Ti64  1  0.19791433  0.56915167  0.06926950  1.0
  Ti  Ti65  1  0.19791433  0.90248500  0.06926950  1.0
  Ti  Ti66  1  0.53124767  0.23581833  0.06926950  1.0
  Ti  Ti67  1  0.53124767  0.56915167  0.06926950  1.0
  Ti  Ti68  1  0.53124767  0.90248500  0.06926950  1.0
  Ti  Ti69  1  0.86458100  0.23581833  0.06926950  1.0
  Ti  Ti70  1  0.86458100  0.56915167  0.06926950  1.0
  Ti  Ti71  1  0.86458100  0.90248500  0.06926950  1.0
  Ti  Ti72  1  0.13541900  0.09751500  0.06568121  1.0
  Ti  Ti73  1  0.13541900  0.43084833  0.06568121  1.0
  Ti  Ti74  1  0.13541900  0.76418167  0.06568121  1.0
  Ti  Ti75  1  0.46875233  0.09751500  0.06568121  1.0
  Ti  Ti76  1  0.46875233  0.43084833  0.06568121  1.0
  Ti  Ti77  1  0.46875233  0.76418167  0.06568121  1.0
  Ti  Ti78  1  0.80208567  0.09751500  0.06568121  1.0
  Ti  Ti79  1  0.80208567  0.43084833  0.06568121  1.0
  Ti  Ti80  1  0.80208567  0.76418167  0.06568121  1.0
  Ti  Ti81  1  0.13541900  0.26418167  0.13710979  1.0
  Ti  Ti82  1  0.13541900  0.59751500  0.13710979  1.0
  Ti  Ti83  1  0.13541900  0.93084833  0.13710979  1.0
  Ti  Ti84  1  0.46875233  0.26418167  0.13710979  1.0
  Ti  Ti85  1  0.46875233  0.59751500  0.13710979  1.0
  Ti  Ti86  1  0.46875233  0.93084833  0.13710979  1.0
  Ti  Ti87  1  0.80208567  0.26418167  0.13710979  1.0
  Ti  Ti88  1  0.80208567  0.59751500  0.13710979  1.0
  Ti  Ti89  1  0.80208567  0.93084833  0.13710979  1.0
  Ti  Ti90  1  0.15967333  0.04186400  0.04602136  1.0
  Ti  Ti91  1  0.15967333  0.37519733  0.04602136  1.0
  Ti  Ti92  1  0.15967333  0.70853067  0.04602136  1.0
  Ti  Ti93  1  0.49300667  0.04186400  0.04602136  1.0
  Ti  Ti94  1  0.49300667  0.37519733  0.04602136  1.0
  Ti  Ti95  1  0.49300667  0.70853067  0.04602136  1.0
  Ti  Ti96  1  0.82634000  0.04186400  0.04602136  1.0
  Ti  Ti97  1  0.82634000  0.37519733  0.04602136  1.0
  Ti  Ti98  1  0.82634000  0.70853067  0.04602136  1.0
  Ti  Ti99  1  0.15967333  0.20853067  0.11744993  1.0
  Ti  Ti100  1  0.15967333  0.54186400  0.11744993  1.0
  Ti  Ti101  1  0.15967333  0.87519733  0.11744993  1.0
  Ti  Ti102  1  0.49300667  0.20853067  0.11744993  1.0
  Ti  Ti103  1  0.49300667  0.54186400  0.11744993  1.0
  Ti  Ti104  1  0.49300667  0.87519733  0.11744993  1.0
  Ti  Ti105  1  0.82634000  0.20853067  0.11744993  1.0
  Ti  Ti106  1  0.82634000  0.54186400  0.11744993  1.0
  Ti  Ti107  1  0.82634000  0.87519733  0.11744993  1.0
  Ni  Ni108  1  0.00240700  0.01413783  0.04884329  1.0
  Ni  Ni109  1  0.00240700  0.34747117  0.04884329  1.0
  Ni  Ni110  1  0.00240700  0.68080450  0.04884329  1.0
  Ni  Ni111  1  0.33574033  0.01413783  0.04884329  1.0
  Ni  Ni112  1  0.33574033  0.34747117  0.04884329  1.0
  Ni  Ni113  1  0.33574033  0.68080450  0.04884329  1.0
  Ni  Ni114  1  0.66907367  0.01413783  0.04884329  1.0
  Ni  Ni115  1  0.66907367  0.34747117  0.04884329  1.0
  Ni  Ni116  1  0.66907367  0.68080450  0.04884329  1.0
  Ni  Ni117  1  0.00240700  0.18080450  0.12027186  1.0
  Ni  Ni118  1  0.00240700  0.51413783  0.12027186  1.0
  Ni  Ni119  1  0.00240700  0.84747117  0.12027186  1.0
  Ni  Ni120  1  0.33574033  0.18080450  0.12027186  1.0
  Ni  Ni121  1  0.33574033  0.51413783  0.12027186  1.0
  Ni  Ni122  1  0.33574033  0.84747117  0.12027186  1.0
  Ni  Ni123  1  0.66907367  0.18080450  0.12027186  1.0
  Ni  Ni124  1  0.66907367  0.51413783  0.12027186  1.0
  Ni  Ni125  1  0.66907367  0.84747117  0.12027186  1.0
  Ni  Ni126  1  0.00385800  0.06961633  0.07358764  1.0
  Ni  Ni127  1  0.00385800  0.40294967  0.07358764  1.0
  Ni  Ni128  1  0.00385800  0.73628300  0.07358764  1.0
  Ni  Ni129  1  0.33719133  0.06961633  0.07358764  1.0
  Ni  Ni130  1  0.33719133  0.40294967  0.07358764  1.0
  Ni  Ni131  1  0.33719133  0.73628300  0.07358764  1.0
  Ni  Ni132  1  0.67052467  0.06961633  0.07358764  1.0
  Ni  Ni133  1  0.67052467  0.40294967  0.07358764  1.0
  Ni  Ni134  1  0.67052467  0.73628300  0.07358764  1.0
  Ni  Ni135  1  0.00385800  0.23628300  0.00215907  1.0
  Ni  Ni136  1  0.00385800  0.56961633  0.00215907  1.0
  Ni  Ni137  1  0.00385800  0.90294967  0.00215907  1.0
  Ni  Ni138  1  0.33719133  0.23628300  0.00215907  1.0
  Ni  Ni139  1  0.33719133  0.56961633  0.00215907  1.0
  Ni  Ni140  1  0.33719133  0.90294967  0.00215907  1.0
  Ni  Ni141  1  0.67052467  0.23628300  0.00215907  1.0
  Ni  Ni142  1  0.67052467  0.56961633  0.00215907  1.0
  Ni  Ni143  1  0.67052467  0.90294967  0.00215907  1.0
  Ni  Ni144  1  0.31541000  0.12540017  0.09416971  1.0
  Ni  Ni145  1  0.31541000  0.45873350  0.09416971  1.0
  Ni  Ni146  1  0.31541000  0.79206683  0.09416971  1.0
  Ni  Ni147  1  0.64874333  0.12540017  0.09416971  1.0
  Ni  Ni148  1  0.64874333  0.45873350  0.09416971  1.0
  Ni  Ni149  1  0.64874333  0.79206683  0.09416971  1.0
  Ni  Ni150  1  0.98207667  0.12540017  0.09416971  1.0
  Ni  Ni151  1  0.98207667  0.45873350  0.09416971  1.0
  Ni  Ni152  1  0.98207667  0.79206683  0.09416971  1.0
  Ni  Ni153  1  0.31541000  0.29206683  0.02274114  1.0
  Ni  Ni154  1  0.31541000  0.62540017  0.02274114  1.0
  Ni  Ni155  1  0.31541000  0.95873350  0.02274114  1.0
  Ni  Ni156  1  0.64874333  0.29206683  0.02274114  1.0
  Ni  Ni157  1  0.64874333  0.62540017  0.02274114  1.0
  Ni  Ni158  1  0.64874333  0.95873350  0.02274114  1.0
  Ni  Ni159  1  0.98207667  0.29206683  0.02274114  1.0
  Ni  Ni160  1  0.98207667  0.62540017  0.02274114  1.0
  Ni  Ni161  1  0.98207667  0.95873350  0.02274114  1.0
  Ni  Ni162  1  0.33092633  0.15252883  0.01467886  1.0
  Ni  Ni163  1  0.33092633  0.48586217  0.01467886  1.0
  Ni  Ni164  1  0.33092633  0.81919550  0.01467886  1.0
  Ni  Ni165  1  0.66425967  0.15252883  0.01467886  1.0
  Ni  Ni166  1  0.66425967  0.48586217  0.01467886  1.0
  Ni  Ni167  1  0.66425967  0.81919550  0.01467886  1.0
  Ni  Ni168  1  0.99759300  0.15252883  0.01467886  1.0
  Ni  Ni169  1  0.99759300  0.48586217  0.01467886  1.0
  Ni  Ni170  1  0.99759300  0.81919550  0.01467886  1.0
  Ni  Ni171  1  0.33092633  0.31919550  0.08610743  1.0
  Ni  Ni172  1  0.33092633  0.65252883  0.08610743  1.0
  Ni  Ni173  1  0.33092633  0.98586217  0.08610743  1.0
  Ni  Ni174  1  0.66425967  0.31919550  0.08610743  1.0
  Ni  Ni175  1  0.66425967  0.65252883  0.08610743  1.0
  Ni  Ni176  1  0.66425967  0.98586217  0.08610743  1.0
  Ni  Ni177  1  0.99759300  0.31919550  0.08610743  1.0
  Ni  Ni178  1  0.99759300  0.65252883  0.08610743  1.0
  Ni  Ni179  1  0.99759300  0.98586217  0.08610743  1.0
  Ni  Ni180  1  0.32947533  0.09705033  0.13279164  1.0
  Ni  Ni181  1  0.32947533  0.43038367  0.13279164  1.0
  Ni  Ni182  1  0.32947533  0.76371700  0.13279164  1.0
  Ni  Ni183  1  0.66280867  0.09705033  0.13279164  1.0
  Ni  Ni184  1  0.66280867  0.43038367  0.13279164  1.0
  Ni  Ni185  1  0.66280867  0.76371700  0.13279164  1.0
  Ni  Ni186  1  0.99614200  0.09705033  0.13279164  1.0
  Ni  Ni187  1  0.99614200  0.43038367  0.13279164  1.0
  Ni  Ni188  1  0.99614200  0.76371700  0.13279164  1.0
  Ni  Ni189  1  0.32947533  0.26371700  0.06136307  1.0
  Ni  Ni190  1  0.32947533  0.59705033  0.06136307  1.0
  Ni  Ni191  1  0.32947533  0.93038367  0.06136307  1.0
  Ni  Ni192  1  0.66280867  0.26371700  0.06136307  1.0
  Ni  Ni193  1  0.66280867  0.59705033  0.06136307  1.0
  Ni  Ni194  1  0.66280867  0.93038367  0.06136307  1.0
  Ni  Ni195  1  0.99614200  0.26371700  0.06136307  1.0
  Ni  Ni196  1  0.99614200  0.59705033  0.06136307  1.0
  Ni  Ni197  1  0.99614200  0.93038367  0.06136307  1.0
  Ni  Ni198  1  0.01792333  0.04126650  0.11220957  1.0
  Ni  Ni199  1  0.01792333  0.37459983  0.11220957  1.0
  Ni  Ni200  1  0.01792333  0.70793317  0.11220957  1.0
  Ni  Ni201  1  0.35125667  0.04126650  0.11220957  1.0
  Ni  Ni202  1  0.35125667  0.37459983  0.11220957  1.0
  Ni  Ni203  1  0.35125667  0.70793317  0.11220957  1.0
  Ni  Ni204  1  0.68459000  0.04126650  0.11220957  1.0
  Ni  Ni205  1  0.68459000  0.37459983  0.11220957  1.0
  Ni  Ni206  1  0.68459000  0.70793317  0.11220957  1.0
  Ni  Ni207  1  0.01792333  0.20793317  0.04078100  1.0
  Ni  Ni208  1  0.01792333  0.54126650  0.04078100  1.0
  Ni  Ni209  1  0.01792333  0.87459983  0.04078100  1.0
  Ni  Ni210  1  0.35125667  0.20793317  0.04078100  1.0
  Ni  Ni211  1  0.35125667  0.54126650  0.04078100  1.0
  Ni  Ni212  1  0.35125667  0.87459983  0.04078100  1.0
  Ni  Ni213  1  0.68459000  0.20793317  0.04078100  1.0
  Ni  Ni214  1  0.68459000  0.54126650  0.04078100  1.0
  Ni  Ni215  1  0.68459000  0.87459983  0.04078100  1.0
  Ti  Ti216  1  0.14071200  0.15293067  0.23340693  1.0
  Ti  Ti217  1  0.14071200  0.48626400  0.23340693  1.0
  Ti  Ti218  1  0.14071200  0.81959733  0.23340693  1.0
  Ti  Ti219  1  0.47404533  0.15293067  0.23340693  1.0
  Ti  Ti220  1  0.47404533  0.48626400  0.23340693  1.0
  Ti  Ti221  1  0.47404533  0.81959733  0.23340693  1.0
  Ti  Ti222  1  0.80737867  0.15293067  0.23340693  1.0
  Ti  Ti223  1  0.80737867  0.48626400  0.23340693  1.0
  Ti  Ti224  1  0.80737867  0.81959733  0.23340693  1.0
  Ti  Ti225  1  0.14071200  0.31959733  0.16197836  1.0
  Ti  Ti226  1  0.14071200  0.65293067  0.16197836  1.0
  Ti  Ti227  1  0.14071200  0.98626400  0.16197836  1.0
  Ti  Ti228  1  0.47404533  0.31959733  0.16197836  1.0
  Ti  Ti229  1  0.47404533  0.65293067  0.16197836  1.0
  Ti  Ti230  1  0.47404533  0.98626400  0.16197836  1.0
  Ti  Ti231  1  0.80737867  0.31959733  0.16197836  1.0
  Ti  Ti232  1  0.80737867  0.65293067  0.16197836  1.0
  Ti  Ti233  1  0.80737867  0.98626400  0.16197836  1.0
  Ti  Ti234  1  0.19262133  0.01373600  0.25868664  1.0
  Ti  Ti235  1  0.19262133  0.34706933  0.25868664  1.0
  Ti  Ti236  1  0.19262133  0.68040267  0.25868664  1.0
  Ti  Ti237  1  0.52595467  0.01373600  0.25868664  1.0
  Ti  Ti238  1  0.52595467  0.34706933  0.25868664  1.0
  Ti  Ti239  1  0.52595467  0.68040267  0.25868664  1.0
  Ti  Ti240  1  0.85928800  0.01373600  0.25868664  1.0
  Ti  Ti241  1  0.85928800  0.34706933  0.25868664  1.0
  Ti  Ti242  1  0.85928800  0.68040267  0.25868664  1.0
  Ti  Ti243  1  0.19262133  0.18040267  0.18725807  1.0
  Ti  Ti244  1  0.19262133  0.51373600  0.18725807  1.0
  Ti  Ti245  1  0.19262133  0.84706933  0.18725807  1.0
  Ti  Ti246  1  0.52595467  0.18040267  0.18725807  1.0
  Ti  Ti247  1  0.52595467  0.51373600  0.18725807  1.0
  Ti  Ti248  1  0.52595467  0.84706933  0.18725807  1.0
  Ti  Ti249  1  0.85928800  0.18040267  0.18725807  1.0
  Ti  Ti250  1  0.85928800  0.51373600  0.18725807  1.0
  Ti  Ti251  1  0.85928800  0.84706933  0.18725807  1.0
  Ti  Ti252  1  0.17366000  0.12480267  0.16035793  1.0
  Ti  Ti253  1  0.17366000  0.45813600  0.16035793  1.0
  Ti  Ti254  1  0.17366000  0.79146933  0.16035793  1.0
  Ti  Ti255  1  0.50699333  0.12480267  0.16035793  1.0
  Ti  Ti256  1  0.50699333  0.45813600  0.16035793  1.0
  Ti  Ti257  1  0.50699333  0.79146933  0.16035793  1.0
  Ti  Ti258  1  0.84032667  0.12480267  0.16035793  1.0
  Ti  Ti259  1  0.84032667  0.45813600  0.16035793  1.0
  Ti  Ti260  1  0.84032667  0.79146933  0.16035793  1.0
  Ti  Ti261  1  0.17366000  0.29146933  0.23178650  1.0
  Ti  Ti262  1  0.17366000  0.62480267  0.23178650  1.0
  Ti  Ti263  1  0.17366000  0.95813600  0.23178650  1.0
  Ti  Ti264  1  0.50699333  0.29146933  0.23178650  1.0
  Ti  Ti265  1  0.50699333  0.62480267  0.23178650  1.0
  Ti  Ti266  1  0.50699333  0.95813600  0.23178650  1.0
  Ti  Ti267  1  0.84032667  0.29146933  0.23178650  1.0
  Ti  Ti268  1  0.84032667  0.62480267  0.23178650  1.0
  Ti  Ti269  1  0.84032667  0.95813600  0.23178650  1.0
  Ti  Ti270  1  0.19791433  0.06915167  0.28355521  1.0
  Ti  Ti271  1  0.19791433  0.40248500  0.28355521  1.0
  Ti  Ti272  1  0.19791433  0.73581833  0.28355521  1.0
  Ti  Ti273  1  0.53124767  0.06915167  0.28355521  1.0
  Ti  Ti274  1  0.53124767  0.40248500  0.28355521  1.0
  Ti  Ti275  1  0.53124767  0.73581833  0.28355521  1.0
  Ti  Ti276  1  0.86458100  0.06915167  0.28355521  1.0
  Ti  Ti277  1  0.86458100  0.40248500  0.28355521  1.0
  Ti  Ti278  1  0.86458100  0.73581833  0.28355521  1.0
  Ti  Ti279  1  0.19791433  0.23581833  0.21212664  1.0
  Ti  Ti280  1  0.19791433  0.56915167  0.21212664  1.0
  Ti  Ti281  1  0.19791433  0.90248500  0.21212664  1.0
  Ti  Ti282  1  0.53124767  0.23581833  0.21212664  1.0
  Ti  Ti283  1  0.53124767  0.56915167  0.21212664  1.0
  Ti  Ti284  1  0.53124767  0.90248500  0.21212664  1.0
  Ti  Ti285  1  0.86458100  0.23581833  0.21212664  1.0
  Ti  Ti286  1  0.86458100  0.56915167  0.21212664  1.0
  Ti  Ti287  1  0.86458100  0.90248500  0.21212664  1.0
  Ti  Ti288  1  0.13541900  0.09751500  0.20853836  1.0
  Ti  Ti289  1  0.13541900  0.43084833  0.20853836  1.0
  Ti  Ti290  1  0.13541900  0.76418167  0.20853836  1.0
  Ti  Ti291  1  0.46875233  0.09751500  0.20853836  1.0
  Ti  Ti292  1  0.46875233  0.43084833  0.20853836  1.0
  Ti  Ti293  1  0.46875233  0.76418167  0.20853836  1.0
  Ti  Ti294  1  0.80208567  0.09751500  0.20853836  1.0
  Ti  Ti295  1  0.80208567  0.43084833  0.20853836  1.0
  Ti  Ti296  1  0.80208567  0.76418167  0.20853836  1.0
  Ti  Ti297  1  0.13541900  0.26418167  0.27996693  1.0
  Ti  Ti298  1  0.13541900  0.59751500  0.27996693  1.0
  Ti  Ti299  1  0.13541900  0.93084833  0.27996693  1.0
  Ti  Ti300  1  0.46875233  0.26418167  0.27996693  1.0
  Ti  Ti301  1  0.46875233  0.59751500  0.27996693  1.0
  Ti  Ti302  1  0.46875233  0.93084833  0.27996693  1.0
  Ti  Ti303  1  0.80208567  0.26418167  0.27996693  1.0
  Ti  Ti304  1  0.80208567  0.59751500  0.27996693  1.0
  Ti  Ti305  1  0.80208567  0.93084833  0.27996693  1.0
  Ti  Ti306  1  0.15967333  0.04186400  0.18887850  1.0
  Ti  Ti307  1  0.15967333  0.37519733  0.18887850  1.0
  Ti  Ti308  1  0.15967333  0.70853067  0.18887850  1.0
  Ti  Ti309  1  0.49300667  0.04186400  0.18887850  1.0
  Ti  Ti310  1  0.49300667  0.37519733  0.18887850  1.0
  Ti  Ti311  1  0.49300667  0.70853067  0.18887850  1.0
  Ti  Ti312  1  0.82634000  0.04186400  0.18887850  1.0
  Ti  Ti313  1  0.82634000  0.37519733  0.18887850  1.0
  Ti  Ti314  1  0.82634000  0.70853067  0.18887850  1.0
  Ti  Ti315  1  0.15967333  0.20853067  0.26030707  1.0
  Ti  Ti316  1  0.15967333  0.54186400  0.26030707  1.0
  Ti  Ti317  1  0.15967333  0.87519733  0.26030707  1.0
  Ti  Ti318  1  0.49300667  0.20853067  0.26030707  1.0
  Ti  Ti319  1  0.49300667  0.54186400  0.26030707  1.0
  Ti  Ti320  1  0.49300667  0.87519733  0.26030707  1.0
  Ti  Ti321  1  0.82634000  0.20853067  0.26030707  1.0
  Ti  Ti322  1  0.82634000  0.54186400  0.26030707  1.0
  Ti  Ti323  1  0.82634000  0.87519733  0.26030707  1.0
  Ni  Ni324  1  0.00240700  0.01413783  0.19170043  1.0
  Ni  Ni325  1  0.00240700  0.34747117  0.19170043  1.0
  Ni  Ni326  1  0.00240700  0.68080450  0.19170043  1.0
  Ni  Ni327  1  0.33574033  0.01413783  0.19170043  1.0
  Ni  Ni328  1  0.33574033  0.34747117  0.19170043  1.0
  Ni  Ni329  1  0.33574033  0.68080450  0.19170043  1.0
  Ni  Ni330  1  0.66907367  0.01413783  0.19170043  1.0
  Ni  Ni331  1  0.66907367  0.34747117  0.19170043  1.0
  Ni  Ni332  1  0.66907367  0.68080450  0.19170043  1.0
  Ni  Ni333  1  0.00240700  0.18080450  0.26312900  1.0
  Ni  Ni334  1  0.00240700  0.51413783  0.26312900  1.0
  Ni  Ni335  1  0.00240700  0.84747117  0.26312900  1.0
  Ni  Ni336  1  0.33574033  0.18080450  0.26312900  1.0
  Ni  Ni337  1  0.33574033  0.51413783  0.26312900  1.0
  Ni  Ni338  1  0.33574033  0.84747117  0.26312900  1.0
  Ni  Ni339  1  0.66907367  0.18080450  0.26312900  1.0
  Ni  Ni340  1  0.66907367  0.51413783  0.26312900  1.0
  Ni  Ni341  1  0.66907367  0.84747117  0.26312900  1.0
  Ni  Ni342  1  0.00385800  0.06961633  0.21644479  1.0
  Ni  Ni343  1  0.00385800  0.40294967  0.21644479  1.0
  Ni  Ni344  1  0.00385800  0.73628300  0.21644479  1.0
  Ni  Ni345  1  0.33719133  0.06961633  0.21644479  1.0
  Ni  Ni346  1  0.33719133  0.40294967  0.21644479  1.0
  Ni  Ni347  1  0.33719133  0.73628300  0.21644479  1.0
  Ni  Ni348  1  0.67052467  0.06961633  0.21644479  1.0
  Ni  Ni349  1  0.67052467  0.40294967  0.21644479  1.0
  Ni  Ni350  1  0.67052467  0.73628300  0.21644479  1.0
  Ni  Ni351  1  0.00385800  0.23628300  0.14501621  1.0
  Ni  Ni352  1  0.00385800  0.56961633  0.14501621  1.0
  Ni  Ni353  1  0.00385800  0.90294967  0.14501621  1.0
  Ni  Ni354  1  0.33719133  0.23628300  0.14501621  1.0
  Ni  Ni355  1  0.33719133  0.56961633  0.14501621  1.0
  Ni  Ni356  1  0.33719133  0.90294967  0.14501621  1.0
  Ni  Ni357  1  0.67052467  0.23628300  0.14501621  1.0
  Ni  Ni358  1  0.67052467  0.56961633  0.14501621  1.0
  Ni  Ni359  1  0.67052467  0.90294967  0.14501621  1.0
  Ni  Ni360  1  0.31541000  0.12540017  0.23702686  1.0
  Ni  Ni361  1  0.31541000  0.45873350  0.23702686  1.0
  Ni  Ni362  1  0.31541000  0.79206683  0.23702686  1.0
  Ni  Ni363  1  0.64874333  0.12540017  0.23702686  1.0
  Ni  Ni364  1  0.64874333  0.45873350  0.23702686  1.0
  Ni  Ni365  1  0.64874333  0.79206683  0.23702686  1.0
  Ni  Ni366  1  0.98207667  0.12540017  0.23702686  1.0
  Ni  Ni367  1  0.98207667  0.45873350  0.23702686  1.0
  Ni  Ni368  1  0.98207667  0.79206683  0.23702686  1.0
  Ni  Ni369  1  0.31541000  0.29206683  0.16559829  1.0
  Ni  Ni370  1  0.31541000  0.62540017  0.16559829  1.0
  Ni  Ni371  1  0.31541000  0.95873350  0.16559829  1.0
  Ni  Ni372  1  0.64874333  0.29206683  0.16559829  1.0
  Ni  Ni373  1  0.64874333  0.62540017  0.16559829  1.0
  Ni  Ni374  1  0.64874333  0.95873350  0.16559829  1.0
  Ni  Ni375  1  0.98207667  0.29206683  0.16559829  1.0
  Ni  Ni376  1  0.98207667  0.62540017  0.16559829  1.0
  Ni  Ni377  1  0.98207667  0.95873350  0.16559829  1.0
  Ni  Ni378  1  0.33092633  0.15252883  0.15753600  1.0
  Ni  Ni379  1  0.33092633  0.48586217  0.15753600  1.0
  Ni  Ni380  1  0.33092633  0.81919550  0.15753600  1.0
  Ni  Ni381  1  0.66425967  0.15252883  0.15753600  1.0
  Ni  Ni382  1  0.66425967  0.48586217  0.15753600  1.0
  Ni  Ni383  1  0.66425967  0.81919550  0.15753600  1.0
  Ni  Ni384  1  0.99759300  0.15252883  0.15753600  1.0
  Ni  Ni385  1  0.99759300  0.48586217  0.15753600  1.0
  Ni  Ni386  1  0.99759300  0.81919550  0.15753600  1.0
  Ni  Ni387  1  0.33092633  0.31919550  0.22896457  1.0
  Ni  Ni388  1  0.33092633  0.65252883  0.22896457  1.0
  Ni  Ni389  1  0.33092633  0.98586217  0.22896457  1.0
  Ni  Ni390  1  0.66425967  0.31919550  0.22896457  1.0
  Ni  Ni391  1  0.66425967  0.65252883  0.22896457  1.0
  Ni  Ni392  1  0.66425967  0.98586217  0.22896457  1.0
  Ni  Ni393  1  0.99759300  0.31919550  0.22896457  1.0
  Ni  Ni394  1  0.99759300  0.65252883  0.22896457  1.0
  Ni  Ni395  1  0.99759300  0.98586217  0.22896457  1.0
  Ni  Ni396  1  0.32947533  0.09705033  0.27564879  1.0
  Ni  Ni397  1  0.32947533  0.43038367  0.27564879  1.0
  Ni  Ni398  1  0.32947533  0.76371700  0.27564879  1.0
  Ni  Ni399  1  0.66280867  0.09705033  0.27564879  1.0
  Ni  Ni400  1  0.66280867  0.43038367  0.27564879  1.0
  Ni  Ni401  1  0.66280867  0.76371700  0.27564879  1.0
  Ni  Ni402  1  0.99614200  0.09705033  0.27564879  1.0
  Ni  Ni403  1  0.99614200  0.43038367  0.27564879  1.0
  Ni  Ni404  1  0.99614200  0.76371700  0.27564879  1.0
  Ni  Ni405  1  0.32947533  0.26371700  0.20422021  1.0
  Ni  Ni406  1  0.32947533  0.59705033  0.20422021  1.0
  Ni  Ni407  1  0.32947533  0.93038367  0.20422021  1.0
  Ni  Ni408  1  0.66280867  0.26371700  0.20422021  1.0
  Ni  Ni409  1  0.66280867  0.59705033  0.20422021  1.0
  Ni  Ni410  1  0.66280867  0.93038367  0.20422021  1.0
  Ni  Ni411  1  0.99614200  0.26371700  0.20422021  1.0
  Ni  Ni412  1  0.99614200  0.59705033  0.20422021  1.0
  Ni  Ni413  1  0.99614200  0.93038367  0.20422021  1.0
  Ni  Ni414  1  0.01792333  0.04126650  0.25506671  1.0
  Ni  Ni415  1  0.01792333  0.37459983  0.25506671  1.0
  Ni  Ni416  1  0.01792333  0.70793317  0.25506671  1.0
  Ni  Ni417  1  0.35125667  0.04126650  0.25506671  1.0
  Ni  Ni418  1  0.35125667  0.37459983  0.25506671  1.0
  Ni  Ni419  1  0.35125667  0.70793317  0.25506671  1.0
  Ni  Ni420  1  0.68459000  0.04126650  0.25506671  1.0
  Ni  Ni421  1  0.68459000  0.37459983  0.25506671  1.0
  Ni  Ni422  1  0.68459000  0.70793317  0.25506671  1.0
  Ni  Ni423  1  0.01792333  0.20793317  0.18363814  1.0
  Ni  Ni424  1  0.01792333  0.54126650  0.18363814  1.0
  Ni  Ni425  1  0.01792333  0.87459983  0.18363814  1.0
  Ni  Ni426  1  0.35125667  0.20793317  0.18363814  1.0
  Ni  Ni427  1  0.35125667  0.54126650  0.18363814  1.0
  Ni  Ni428  1  0.35125667  0.87459983  0.18363814  1.0
  Ni  Ni429  1  0.68459000  0.20793317  0.18363814  1.0
  Ni  Ni430  1  0.68459000  0.54126650  0.18363814  1.0
  Ni  Ni431  1  0.68459000  0.87459983  0.18363814  1.0
  Ti  Ti432  1  0.14071200  0.15293067  0.37626407  1.0
  Ti  Ti433  1  0.14071200  0.48626400  0.37626407  1.0
  Ti  Ti434  1  0.14071200  0.81959733  0.37626407  1.0
  Ti  Ti435  1  0.47404533  0.15293067  0.37626407  1.0
  Ti  Ti436  1  0.47404533  0.48626400  0.37626407  1.0
  Ti  Ti437  1  0.47404533  0.81959733  0.37626407  1.0
  Ti  Ti438  1  0.80737867  0.15293067  0.37626407  1.0
  Ti  Ti439  1  0.80737867  0.48626400  0.37626407  1.0
  Ti  Ti440  1  0.80737867  0.81959733  0.37626407  1.0
  Ti  Ti441  1  0.14071200  0.31959733  0.30483550  1.0
  Ti  Ti442  1  0.14071200  0.65293067  0.30483550  1.0
  Ti  Ti443  1  0.14071200  0.98626400  0.30483550  1.0
  Ti  Ti444  1  0.47404533  0.31959733  0.30483550  1.0
  Ti  Ti445  1  0.47404533  0.65293067  0.30483550  1.0
  Ti  Ti446  1  0.47404533  0.98626400  0.30483550  1.0
  Ti  Ti447  1  0.80737867  0.31959733  0.30483550  1.0
  Ti  Ti448  1  0.80737867  0.65293067  0.30483550  1.0
  Ti  Ti449  1  0.80737867  0.98626400  0.30483550  1.0
  Ti  Ti450  1  0.19262133  0.01373600  0.40154379  1.0
  Ti  Ti451  1  0.19262133  0.34706933  0.40154379  1.0
  Ti  Ti452  1  0.19262133  0.68040267  0.40154379  1.0
  Ti  Ti453  1  0.52595467  0.01373600  0.40154379  1.0
  Ti  Ti454  1  0.52595467  0.34706933  0.40154379  1.0
  Ti  Ti455  1  0.52595467  0.68040267  0.40154379  1.0
  Ti  Ti456  1  0.85928800  0.01373600  0.40154379  1.0
  Ti  Ti457  1  0.85928800  0.34706933  0.40154379  1.0
  Ti  Ti458  1  0.85928800  0.68040267  0.40154379  1.0
  Ti  Ti459  1  0.19262133  0.18040267  0.33011521  1.0
  Ti  Ti460  1  0.19262133  0.51373600  0.33011521  1.0
  Ti  Ti461  1  0.19262133  0.84706933  0.33011521  1.0
  Ti  Ti462  1  0.52595467  0.18040267  0.33011521  1.0
  Ti  Ti463  1  0.52595467  0.51373600  0.33011521  1.0
  Ti  Ti464  1  0.52595467  0.84706933  0.33011521  1.0
  Ti  Ti465  1  0.85928800  0.18040267  0.33011521  1.0
  Ti  Ti466  1  0.85928800  0.51373600  0.33011521  1.0
  Ti  Ti467  1  0.85928800  0.84706933  0.33011521  1.0
  Ti  Ti468  1  0.17366000  0.12480267  0.30321507  1.0
  Ti  Ti469  1  0.17366000  0.45813600  0.30321507  1.0
  Ti  Ti470  1  0.17366000  0.79146933  0.30321507  1.0
  Ti  Ti471  1  0.50699333  0.12480267  0.30321507  1.0
  Ti  Ti472  1  0.50699333  0.45813600  0.30321507  1.0
  Ti  Ti473  1  0.50699333  0.79146933  0.30321507  1.0
  Ti  Ti474  1  0.84032667  0.12480267  0.30321507  1.0
  Ti  Ti475  1  0.84032667  0.45813600  0.30321507  1.0
  Ti  Ti476  1  0.84032667  0.79146933  0.30321507  1.0
  Ti  Ti477  1  0.17366000  0.29146933  0.37464364  1.0
  Ti  Ti478  1  0.17366000  0.62480267  0.37464364  1.0
  Ti  Ti479  1  0.17366000  0.95813600  0.37464364  1.0
  Ti  Ti480  1  0.50699333  0.29146933  0.37464364  1.0
  Ti  Ti481  1  0.50699333  0.62480267  0.37464364  1.0
  Ti  Ti482  1  0.50699333  0.95813600  0.37464364  1.0
  Ti  Ti483  1  0.84032667  0.29146933  0.37464364  1.0
  Ti  Ti484  1  0.84032667  0.62480267  0.37464364  1.0
  Ti  Ti485  1  0.84032667  0.95813600  0.37464364  1.0
  Ti  Ti486  1  0.19791433  0.06915167  0.42641236  1.0
  Ti  Ti487  1  0.19791433  0.40248500  0.42641236  1.0
  Ti  Ti488  1  0.19791433  0.73581833  0.42641236  1.0
  Ti  Ti489  1  0.53124767  0.06915167  0.42641236  1.0
  Ti  Ti490  1  0.53124767  0.40248500  0.42641236  1.0
  Ti  Ti491  1  0.53124767  0.73581833  0.42641236  1.0
  Ti  Ti492  1  0.86458100  0.06915167  0.42641236  1.0
  Ti  Ti493  1  0.86458100  0.40248500  0.42641236  1.0
  Ti  Ti494  1  0.86458100  0.73581833  0.42641236  1.0
  Ti  Ti495  1  0.19791433  0.23581833  0.35498379  1.0
  Ti  Ti496  1  0.19791433  0.56915167  0.35498379  1.0
  Ti  Ti497  1  0.19791433  0.90248500  0.35498379  1.0
  Ti  Ti498  1  0.53124767  0.23581833  0.35498379  1.0
  Ti  Ti499  1  0.53124767  0.56915167  0.35498379  1.0
  Ti  Ti500  1  0.53124767  0.90248500  0.35498379  1.0
  Ti  Ti501  1  0.86458100  0.23581833  0.35498379  1.0
  Ti  Ti502  1  0.86458100  0.56915167  0.35498379  1.0
  Ti  Ti503  1  0.86458100  0.90248500  0.35498379  1.0
  Ti  Ti504  1  0.13541900  0.09751500  0.35139550  1.0
  Ti  Ti505  1  0.13541900  0.43084833  0.35139550  1.0
  Ti  Ti506  1  0.13541900  0.76418167  0.35139550  1.0
  Ti  Ti507  1  0.46875233  0.09751500  0.35139550  1.0
  Ti  Ti508  1  0.46875233  0.43084833  0.35139550  1.0
  Ti  Ti509  1  0.46875233  0.76418167  0.35139550  1.0
  Ti  Ti510  1  0.80208567  0.09751500  0.35139550  1.0
  Ti  Ti511  1  0.80208567  0.43084833  0.35139550  1.0
  Ti  Ti512  1  0.80208567  0.76418167  0.35139550  1.0
  Ti  Ti513  1  0.13541900  0.26418167  0.42282407  1.0
  Ti  Ti514  1  0.13541900  0.59751500  0.42282407  1.0
  Ti  Ti515  1  0.13541900  0.93084833  0.42282407  1.0
  Ti  Ti516  1  0.46875233  0.26418167  0.42282407  1.0
  Ti  Ti517  1  0.46875233  0.59751500  0.42282407  1.0
  Ti  Ti518  1  0.46875233  0.93084833  0.42282407  1.0
  Ti  Ti519  1  0.80208567  0.26418167  0.42282407  1.0
  Ti  Ti520  1  0.80208567  0.59751500  0.42282407  1.0
  Ti  Ti521  1  0.80208567  0.93084833  0.42282407  1.0
  Ti  Ti522  1  0.15967333  0.04186400  0.33173564  1.0
  Ti  Ti523  1  0.15967333  0.37519733  0.33173564  1.0
  Ti  Ti524  1  0.15967333  0.70853067  0.33173564  1.0
  Ti  Ti525  1  0.49300667  0.04186400  0.33173564  1.0
  Ti  Ti526  1  0.49300667  0.37519733  0.33173564  1.0
  Ti  Ti527  1  0.49300667  0.70853067  0.33173564  1.0
  Ti  Ti528  1  0.82634000  0.04186400  0.33173564  1.0
  Ti  Ti529  1  0.82634000  0.37519733  0.33173564  1.0
  Ti  Ti530  1  0.82634000  0.70853067  0.33173564  1.0
  Ti  Ti531  1  0.15967333  0.20853067  0.40316421  1.0
  Ti  Ti532  1  0.15967333  0.54186400  0.40316421  1.0
  Ti  Ti533  1  0.15967333  0.87519733  0.40316421  1.0
  Ti  Ti534  1  0.49300667  0.20853067  0.40316421  1.0
  Ti  Ti535  1  0.49300667  0.54186400  0.40316421  1.0
  Ti  Ti536  1  0.49300667  0.87519733  0.40316421  1.0
  Ti  Ti537  1  0.82634000  0.20853067  0.40316421  1.0
  Ti  Ti538  1  0.82634000  0.54186400  0.40316421  1.0
  Ti  Ti539  1  0.82634000  0.87519733  0.40316421  1.0
  Ni  Ni540  1  0.00240700  0.01413783  0.33455757  1.0
  Ni  Ni541  1  0.00240700  0.34747117  0.33455757  1.0
  Ni  Ni542  1  0.00240700  0.68080450  0.33455757  1.0
  Ni  Ni543  1  0.33574033  0.01413783  0.33455757  1.0
  Ni  Ni544  1  0.33574033  0.34747117  0.33455757  1.0
  Ni  Ni545  1  0.33574033  0.68080450  0.33455757  1.0
  Ni  Ni546  1  0.66907367  0.01413783  0.33455757  1.0
  Ni  Ni547  1  0.66907367  0.34747117  0.33455757  1.0
  Ni  Ni548  1  0.66907367  0.68080450  0.33455757  1.0
  Ni  Ni549  1  0.00240700  0.18080450  0.40598614  1.0
  Ni  Ni550  1  0.00240700  0.51413783  0.40598614  1.0
  Ni  Ni551  1  0.00240700  0.84747117  0.40598614  1.0
  Ni  Ni552  1  0.33574033  0.18080450  0.40598614  1.0
  Ni  Ni553  1  0.33574033  0.51413783  0.40598614  1.0
  Ni  Ni554  1  0.33574033  0.84747117  0.40598614  1.0
  Ni  Ni555  1  0.66907367  0.18080450  0.40598614  1.0
  Ni  Ni556  1  0.66907367  0.51413783  0.40598614  1.0
  Ni  Ni557  1  0.66907367  0.84747117  0.40598614  1.0
  Ni  Ni558  1  0.00385800  0.06961633  0.35930193  1.0
  Ni  Ni559  1  0.00385800  0.40294967  0.35930193  1.0
  Ni  Ni560  1  0.00385800  0.73628300  0.35930193  1.0
  Ni  Ni561  1  0.33719133  0.06961633  0.35930193  1.0
  Ni  Ni562  1  0.33719133  0.40294967  0.35930193  1.0
  Ni  Ni563  1  0.33719133  0.73628300  0.35930193  1.0
  Ni  Ni564  1  0.67052467  0.06961633  0.35930193  1.0
  Ni  Ni565  1  0.67052467  0.40294967  0.35930193  1.0
  Ni  Ni566  1  0.67052467  0.73628300  0.35930193  1.0
  Ni  Ni567  1  0.00385800  0.23628300  0.28787336  1.0
  Ni  Ni568  1  0.00385800  0.56961633  0.28787336  1.0
  Ni  Ni569  1  0.00385800  0.90294967  0.28787336  1.0
  Ni  Ni570  1  0.33719133  0.23628300  0.28787336  1.0
  Ni  Ni571  1  0.33719133  0.56961633  0.28787336  1.0
  Ni  Ni572  1  0.33719133  0.90294967  0.28787336  1.0
  Ni  Ni573  1  0.67052467  0.23628300  0.28787336  1.0
  Ni  Ni574  1  0.67052467  0.56961633  0.28787336  1.0
  Ni  Ni575  1  0.67052467  0.90294967  0.28787336  1.0
  Ni  Ni576  1  0.31541000  0.12540017  0.37988400  1.0
  Ni  Ni577  1  0.31541000  0.45873350  0.37988400  1.0
  Ni  Ni578  1  0.31541000  0.79206683  0.37988400  1.0
  Ni  Ni579  1  0.64874333  0.12540017  0.37988400  1.0
  Ni  Ni580  1  0.64874333  0.45873350  0.37988400  1.0
  Ni  Ni581  1  0.64874333  0.79206683  0.37988400  1.0
  Ni  Ni582  1  0.98207667  0.12540017  0.37988400  1.0
  Ni  Ni583  1  0.98207667  0.45873350  0.37988400  1.0
  Ni  Ni584  1  0.98207667  0.79206683  0.37988400  1.0
  Ni  Ni585  1  0.31541000  0.29206683  0.30845543  1.0
  Ni  Ni586  1  0.31541000  0.62540017  0.30845543  1.0
  Ni  Ni587  1  0.31541000  0.95873350  0.30845543  1.0
  Ni  Ni588  1  0.64874333  0.29206683  0.30845543  1.0
  Ni  Ni589  1  0.64874333  0.62540017  0.30845543  1.0
  Ni  Ni590  1  0.64874333  0.95873350  0.30845543  1.0
  Ni  Ni591  1  0.98207667  0.29206683  0.30845543  1.0
  Ni  Ni592  1  0.98207667  0.62540017  0.30845543  1.0
  Ni  Ni593  1  0.98207667  0.95873350  0.30845543  1.0
  Ni  Ni594  1  0.33092633  0.15252883  0.30039314  1.0
  Ni  Ni595  1  0.33092633  0.48586217  0.30039314  1.0
  Ni  Ni596  1  0.33092633  0.81919550  0.30039314  1.0
  Ni  Ni597  1  0.66425967  0.15252883  0.30039314  1.0
  Ni  Ni598  1  0.66425967  0.48586217  0.30039314  1.0
  Ni  Ni599  1  0.66425967  0.81919550  0.30039314  1.0
  Ni  Ni600  1  0.99759300  0.15252883  0.30039314  1.0
  Ni  Ni601  1  0.99759300  0.48586217  0.30039314  1.0
  Ni  Ni602  1  0.99759300  0.81919550  0.30039314  1.0
  Ni  Ni603  1  0.33092633  0.31919550  0.37182171  1.0
  Ni  Ni604  1  0.33092633  0.65252883  0.37182171  1.0
  Ni  Ni605  1  0.33092633  0.98586217  0.37182171  1.0
  Ni  Ni606  1  0.66425967  0.31919550  0.37182171  1.0
  Ni  Ni607  1  0.66425967  0.65252883  0.37182171  1.0
  Ni  Ni608  1  0.66425967  0.98586217  0.37182171  1.0
  Ni  Ni609  1  0.99759300  0.31919550  0.37182171  1.0
  Ni  Ni610  1  0.99759300  0.65252883  0.37182171  1.0
  Ni  Ni611  1  0.99759300  0.98586217  0.37182171  1.0
  Ni  Ni612  1  0.32947533  0.09705033  0.41850593  1.0
  Ni  Ni613  1  0.32947533  0.43038367  0.41850593  1.0
  Ni  Ni614  1  0.32947533  0.76371700  0.41850593  1.0
  Ni  Ni615  1  0.66280867  0.09705033  0.41850593  1.0
  Ni  Ni616  1  0.66280867  0.43038367  0.41850593  1.0
  Ni  Ni617  1  0.66280867  0.76371700  0.41850593  1.0
  Ni  Ni618  1  0.99614200  0.09705033  0.41850593  1.0
  Ni  Ni619  1  0.99614200  0.43038367  0.41850593  1.0
  Ni  Ni620  1  0.99614200  0.76371700  0.41850593  1.0
  Ni  Ni621  1  0.32947533  0.26371700  0.34707736  1.0
  Ni  Ni622  1  0.32947533  0.59705033  0.34707736  1.0
  Ni  Ni623  1  0.32947533  0.93038367  0.34707736  1.0
  Ni  Ni624  1  0.66280867  0.26371700  0.34707736  1.0
  Ni  Ni625  1  0.66280867  0.59705033  0.34707736  1.0
  Ni  Ni626  1  0.66280867  0.93038367  0.34707736  1.0
  Ni  Ni627  1  0.99614200  0.26371700  0.34707736  1.0
  Ni  Ni628  1  0.99614200  0.59705033  0.34707736  1.0
  Ni  Ni629  1  0.99614200  0.93038367  0.34707736  1.0
  Ni  Ni630  1  0.01792333  0.04126650  0.39792386  1.0
  Ni  Ni631  1  0.01792333  0.37459983  0.39792386  1.0
  Ni  Ni632  1  0.01792333  0.70793317  0.39792386  1.0
  Ni  Ni633  1  0.35125667  0.04126650  0.39792386  1.0
  Ni  Ni634  1  0.35125667  0.37459983  0.39792386  1.0
  Ni  Ni635  1  0.35125667  0.70793317  0.39792386  1.0
  Ni  Ni636  1  0.68459000  0.04126650  0.39792386  1.0
  Ni  Ni637  1  0.68459000  0.37459983  0.39792386  1.0
  Ni  Ni638  1  0.68459000  0.70793317  0.39792386  1.0
  Ni  Ni639  1  0.01792333  0.20793317  0.32649529  1.0
  Ni  Ni640  1  0.01792333  0.54126650  0.32649529  1.0
  Ni  Ni641  1  0.01792333  0.87459983  0.32649529  1.0
  Ni  Ni642  1  0.35125667  0.20793317  0.32649529  1.0
  Ni  Ni643  1  0.35125667  0.54126650  0.32649529  1.0
  Ni  Ni644  1  0.35125667  0.87459983  0.32649529  1.0
  Ni  Ni645  1  0.68459000  0.20793317  0.32649529  1.0
  Ni  Ni646  1  0.68459000  0.54126650  0.32649529  1.0
  Ni  Ni647  1  0.68459000  0.87459983  0.32649529  1.0
