# generated using pymatgen
data_TiNi
_symmetry_space_group_name_H-M   'P 1'
_cell_length_a   14.75780262
_cell_length_b   12.04247400
_cell_length_c   49.19267540
_cell_angle_alpha   90.00000000
_cell_angle_beta   145.49649596
_cell_angle_gamma   90.00000000
_symmetry_Int_Tables_number   1
_chemical_formula_structural   TiNi
_chemical_formula_sum   'Ti72 Ni72'
_cell_volume   4952.27242562
_cell_formula_units_Z   72
loop_
 _symmetry_equiv_pos_site_id
 _symmetry_equiv_pos_as_xyz
  1  'x, y, z'
loop_
 _atom_site_type_symbol
 _atom_site_label
 _atom_site_symmetry_multiplicity
 _atom_site_fract_x
 _atom_site_fract_y
 _atom_site_fract_z
 _atom_site_occupancy
  Ti  Ti0  1  0.21424900  0.08333333  0.03572530  1.0
  Ti  Ti1  1  0.21424900  0.41666667  0.03572530  1.0
  Ti  Ti2  1  0.21424900  0.75000000  0.03572530  1.0
  Ti  Ti3  1  0.54758233  0.08333333  0.03572530  1.0
  Ti  Ti4  1  0.54758233  0.41666667  0.03572530  1.0
  Ti  Ti5  1  0.54758233  0.75000000  0.03572530  1.0
  Ti  Ti6  1  0.88091567  0.08333333  0.03572530  1.0
  Ti  Ti7  1  0.88091567  0.41666667  0.03572530  1.0
  Ti  Ti8  1  0.88091567  0.75000000  0.03572530  1.0
  Ti  Ti9  1  0.11908433  0.25000000  0.06427470  1.0
  Ti  Ti10  1  0.11908433  0.58333333  0.06427470  1.0
  Ti  Ti11  1  0.11908433  0.91666667  0.06427470  1.0
  Ti  Ti12  1  0.45241767  0.25000000  0.06427470  1.0
  Ti  Ti13  1  0.45241767  0.58333333  0.06427470  1.0
  Ti  Ti14  1  0.45241767  0.91666667  0.06427470  1.0
  Ti  Ti15  1  0.78575100  0.25000000  0.06427470  1.0
  Ti  Ti16  1  0.78575100  0.58333333  0.06427470  1.0
  Ti  Ti17  1  0.78575100  0.91666667  0.06427470  1.0
  Ni  Ni18  1  0.30498300  0.08333333  0.00850510  1.0
  Ni  Ni19  1  0.30498300  0.41666667  0.00850510  1.0
  Ni  Ni20  1  0.30498300  0.75000000  0.00850510  1.0
  Ni  Ni21  1  0.63831633  0.08333333  0.00850510  1.0
  Ni  Ni22  1  0.63831633  0.41666667  0.00850510  1.0
  Ni  Ni23  1  0.63831633  0.75000000  0.00850510  1.0
  Ni  Ni24  1  0.97164967  0.08333333  0.00850510  1.0
  Ni  Ni25  1  0.97164967  0.41666667  0.00850510  1.0
  Ni  Ni26  1  0.97164967  0.75000000  0.00850510  1.0
  Ni  Ni27  1  0.02835033  0.25000000  0.09149490  1.0
  Ni  Ni28  1  0.02835033  0.58333333  0.09149490  1.0
  Ni  Ni29  1  0.02835033  0.91666667  0.09149490  1.0
  Ni  Ni30  1  0.36168367  0.25000000  0.09149490  1.0
  Ni  Ni31  1  0.36168367  0.58333333  0.09149490  1.0
  Ni  Ni32  1  0.36168367  0.91666667  0.09149490  1.0
  Ni  Ni33  1  0.69501700  0.25000000  0.09149490  1.0
  Ni  Ni34  1  0.69501700  0.58333333  0.09149490  1.0
  Ni  Ni35  1  0.69501700  0.91666667  0.09149490  1.0
  Ti  Ti36  1  0.21424900  0.08333333  0.13572530  1.0
  Ti  Ti37  1  0.21424900  0.41666667  0.13572530  1.0
  Ti  Ti38  1  0.21424900  0.75000000  0.13572530  1.0
  Ti  Ti39  1  0.54758233  0.08333333  0.13572530  1.0
  Ti  Ti40  1  0.54758233  0.41666667  0.13572530  1.0
  Ti  Ti41  1  0.54758233  0.75000000  0.13572530  1.0
  Ti  Ti42  1  0.88091567  0.08333333  0.13572530  1.0
  Ti  Ti43  1  0.88091567  0.41666667  0.13572530  1.0
  Ti  Ti44  1  0.88091567  0.75000000  0.13572530  1.0
  Ti  Ti45  1  0.11908433  0.25000000  0.16427470  1.0
  Ti  Ti46  1  0.11908433  0.58333333  0.16427470  1.0
  Ti  Ti47  1  0.11908433  0.91666667  0.16427470  1.0
  Ti  Ti48  1  0.45241767  0.25000000  0.16427470  1.0
  Ti  Ti49  1  0.45241767  0.58333333  0.16427470  1.0
  Ti  Ti50  1  0.45241767  0.91666667  0.16427470  1.0
  Ti  Ti51  1  0.78575100  0.25000000  0.16427470  1.0
  Ti  Ti52  1  0.78575100  0.58333333  0.16427470  1.0
  Ti  Ti53  1  0.78575100  0.91666667  0.16427470  1.0
  Ni  Ni54  1  0.30498300  0.08333333  0.10850510  1.0
  Ni  Ni55  1  0.30498300  0.41666667  0.10850510  1.0
  Ni  Ni56  1  0.30498300  0.75000000  0.10850510  1.0
  Ni  Ni57  1  0.63831633  0.08333333  0.10850510  1.0
  Ni  Ni58  1  0.63831633  0.41666667  0.10850510  1.0
  Ni  Ni59  1  0.63831633  0.75000000  0.10850510  1.0
  Ni  Ni60  1  0.97164967  0.08333333  0.10850510  1.0
  Ni  Ni61  1  0.97164967  0.41666667  0.10850510  1.0
  Ni  Ni62  1  0.97164967  0.75000000  0.10850510  1.0
  Ni  Ni63  1  0.02835033  0.25000000  0.19149490  1.0
  Ni  Ni64  1  0.02835033  0.58333333  0.19149490  1.0
  Ni  Ni65  1  0.02835033  0.91666667  0.19149490  1.0
  Ni  Ni66  1  0.36168367  0.25000000  0.19149490  1.0
  Ni  Ni67  1  0.36168367  0.58333333  0.19149490  1.0
  Ni  Ni68  1  0.36168367  0.91666667  0.19149490  1.0
  Ni  Ni69  1  0.69501700  0.25000000  0.19149490  1.0
  Ni  Ni70  1  0.69501700  0.58333333  0.19149490  1.0
  Ni  Ni71  1  0.69501700  0.91666667  0.19149490  1.0
  Ti  Ti72  1  0.21424900  0.08333333  0.23572530  1.0
  Ti  Ti73  1  0.21424900  0.41666667  0.23572530  1.0
  Ti  Ti74  1  0.21424900  0.75000000  0.23572530  1.0
  Ti  Ti75  1  0.54758233  0.08333333  0.23572530  1.0
  Ti  Ti76  1  0.54758233  0.41666667  0.23572530  1.0
  Ti  Ti77  1  0.54758233  0.75000000  0.23572530  1.0
  Ti  Ti78  1  0.88091567  0.08333333  0.23572530  1.0
  Ti  Ti79  1  0.88091567  0.41666667  0.23572530  1.0
  Ti  Ti80  1  0.88091567  0.75000000  0.23572530  1.0
  Ti  Ti81  1  0.11908433  0.25000000  0.26427470  1.0
  Ti  Ti82  1  0.11908433  0.58333333  0.26427470  1.0
  Ti  Ti83  1  0.11908433  0.91666667  0.26427470  1.0
  Ti  Ti84  1  0.45241767  0.25000000  0.26427470  1.0
  Ti  Ti85  1  0.45241767  0.58333333  0.26427470  1.0
  Ti  Ti86  1  0.45241767  0.91666667  0.26427470  1.0
  Ti  Ti87  1  0.78575100  0.25000000  0.26427470  1.0
  Ti  Ti88  1  0.78575100  0.58333333  0.26427470  1.0
  Ti  Ti89  1  0.78575100  0.91666667  0.26427470  1.0
  Ni  Ni90  1  0.30498300  0.08333333  0.20850510  1.0
  Ni  Ni91  1  0.30498300  0.41666667  0.20850510  1.0
  Ni  Ni92  1  0.30498300  0.75000000  0.20850510  1.0
  Ni  Ni93  1  0.63831633  0.08333333  0.20850510  1.0
  Ni  Ni94  1  0.63831633  0.41666667  0.20850510  1.0
  Ni  Ni95  1  0.63831633  0.75000000  0.20850510  1.0
  Ni  Ni96  1  0.97164967  0.08333333  0.20850510  1.0
  Ni  Ni97  1  0.97164967  0.41666667  0.20850510  1.0
  Ni  Ni98  1  0.97164967  0.75000000  0.20850510  1.0
  Ni  Ni99  1  0.02835033  0.25000000  0.29149490  1.0
  Ni  Ni100  1  0.02835033  0.58333333  0.29149490  1.0
  Ni  Ni101  1  0.02835033  0.91666667  0.29149490  1.0
  Ni  Ni102  1  0.36168367  0.25000000  0.29149490  1.0
  Ni  Ni103  1  0.36168367  0.58333333  0.29149490  1.0
  Ni  Ni104  1  0.36168367  0.91666667  0.29149490  1.0
  Ni  Ni105  1  0.69501700  0.25000000  0.29149490  1.0
  Ni  Ni106  1  0.69501700  0.58333333  0.29149490  1.0
  Ni  Ni107  1  0.69501700  0.91666667  0.29149490  1.0
  Ti  Ti108  1  0.21424900  0.08333333  0.33572530  1.0
  Ti  Ti109  1  0.21424900  0.41666667  0.33572530  1.0
  Ti  Ti110  1  0.21424900  0.75000000  0.33572530  1.0
  Ti  Ti111  1  0.54758233  0.08333333  0.33572530  1.0
  Ti  Ti112  1  0.54758233  0.41666667  0.33572530  1.0
  Ti  Ti113  1  0.54758233  0.75000000  0.33572530  1.0
  Ti  Ti114  1  0.88091567  0.08333333  0.33572530  1.0
  Ti  Ti115  1  0.88091567  0.41666667  0.33572530  1.0
  Ti  Ti116  1  0.88091567  0.75000000  0.33572530  1.0
  Ti  Ti117  1  0.11908433  0.25000000  0.36427470  1.0
  Ti  Ti118  1  0.11908433  0.58333333  0.36427470  1.0
  Ti  Ti119  1  0.11908433  0.91666667  0.36427470  1.0
  Ti  Ti120  1  0.45241767  0.25000000  0.36427470  1.0
  Ti  Ti121  1  0.45241767  0.58333333  0.36427470  1.0
  Ti  Ti122  1  0.45241767  0.91666667  0.36427470  1.0
  Ti  Ti123  1  0.78575100  0.25000000  0.36427470  1.0
  Ti  Ti124  1  0.78575100  0.58333333  0.36427470  1.0
  Ti  Ti125  1  0.78575100  0.91666667  0.36427470  1.0
  Ni  Ni126  1  0.30498300  0.08333333  0.30850510  1.0
  Ni  Ni127  1  0.30498300  0.41666667  0.30850510  1.0
  Ni  Ni128  1  0.30498300  0.75000000  0.30850510  1.0
  Ni  Ni129  1  0.63831633  0.08333333  0.30850510  1.0
  Ni  Ni130  1  0.63831633  0.41666667  0.30850510  1.0
  Ni  Ni131  1  0.63831633  0.75000000  0.30850510  1.0
  Ni  Ni132  1  0.97164967  0.08333333  0.30850510  1.0
  Ni  Ni133  1  0.97164967  0.41666667  0.30850510  1.0
  Ni  Ni134  1  0.97164967  0.75000000  0.30850510  1.0
  Ni  Ni135  1  0.02835033  0.25000000  0.39149490  1.0
  Ni  Ni136  1  0.02835033  0.58333333  0.39149490  1.0
  Ni  Ni137  1  0.02835033  0.91666667  0.39149490  1.0
  Ni  Ni138  1  0.36168367  0.25000000  0.39149490  1.0
  Ni  Ni139  1  0.36168367  0.58333333  0.39149490  1.0
  Ni  Ni140  1  0.36168367  0.91666667  0.39149490  1.0
  Ni  Ni141  1  0.69501700  0.25000000  0.39149490  1.0
  Ni  Ni142  1  0.69501700  0.58333333  0.39149490  1.0
  Ni  Ni143  1  0.69501700  0.91666667  0.39149490  1.0
