# generated using pymatgen
data_TiNi
_symmetry_space_group_name_H-M   'P 1'
_cell_length_a   13.51149480
_cell_length_b   14.26542600
_cell_length_c   31.52682120
_cell_angle_alpha   90.00000000
_cell_angle_beta   120.00000000
_cell_angle_gamma   90.00000000
_symmetry_Int_Tables_number   1
_chemical_formula_structural   TiNi
_chemical_formula_sum   'Ti81 Ni81'
_cell_volume   5262.58300780
_cell_formula_units_Z   81
loop_
 _symmetry_equiv_pos_site_id
 _symmetry_equiv_pos_as_xyz
  1  'x, y, z'
loop_
 _atom_site_type_symbol
 _atom_site_label
 _atom_site_symmetry_multiplicity
 _atom_site_fract_x
 _atom_site_fract_y
 _atom_site_fract_z
 _atom_site_occupancy
  Ti  Ti0  1  0.00000000  0.24144900  0.11904762  1.0
  Ti  Ti1  1  0.00000000  0.57478233  0.11904762  1.0
  Ti  Ti2  1  0.00000000  0.90811567  0.11904762  1.0
  Ti  Ti3  1  0.33333333  0.24144900  0.11904762  1.0
  Ti  Ti4  1  0.33333333  0.57478233  0.11904762  1.0
  Ti  Ti5  1  0.33333333  0.90811567  0.11904762  1.0
  Ti  Ti6  1  0.66666667  0.24144900  0.11904762  1.0
  Ti  Ti7  1  0.66666667  0.57478233  0.11904762  1.0
  Ti  Ti8  1  0.66666667  0.90811567  0.11904762  1.0
  Ti  Ti9  1  0.11111111  0.04908200  0.07142857  1.0
  Ti  Ti10  1  0.11111111  0.38241533  0.07142857  1.0
  Ti  Ti11  1  0.11111111  0.71574867  0.07142857  1.0
  Ti  Ti12  1  0.44444444  0.04908200  0.07142857  1.0
  Ti  Ti13  1  0.44444444  0.38241533  0.07142857  1.0
  Ti  Ti14  1  0.44444444  0.71574867  0.07142857  1.0
  Ti  Ti15  1  0.77777778  0.04908200  0.07142857  1.0
  Ti  Ti16  1  0.77777778  0.38241533  0.07142857  1.0
  Ti  Ti17  1  0.77777778  0.71574867  0.07142857  1.0
  Ti  Ti18  1  0.22222222  0.04908200  0.02380952  1.0
  Ti  Ti19  1  0.22222222  0.38241533  0.02380952  1.0
  Ti  Ti20  1  0.22222222  0.71574867  0.02380952  1.0
  Ti  Ti21  1  0.55555556  0.04908200  0.02380952  1.0
  Ti  Ti22  1  0.55555556  0.38241533  0.02380952  1.0
  Ti  Ti23  1  0.55555556  0.71574867  0.02380952  1.0
  Ti  Ti24  1  0.88888889  0.04908200  0.02380952  1.0
  Ti  Ti25  1  0.88888889  0.38241533  0.02380952  1.0
  Ti  Ti26  1  0.88888889  0.71574867  0.02380952  1.0
  Ni  Ni27  1  0.00000000  0.07141133  0.11904762  1.0
  Ni  Ni28  1  0.00000000  0.40474467  0.11904762  1.0
  Ni  Ni29  1  0.00000000  0.73807800  0.11904762  1.0
  Ni  Ni30  1  0.33333333  0.07141133  0.11904762  1.0
  Ni  Ni31  1  0.33333333  0.40474467  0.11904762  1.0
  Ni  Ni32  1  0.33333333  0.73807800  0.11904762  1.0
  Ni  Ni33  1  0.66666667  0.07141133  0.11904762  1.0
  Ni  Ni34  1  0.66666667  0.40474467  0.11904762  1.0
  Ni  Ni35  1  0.66666667  0.73807800  0.11904762  1.0
  Ni  Ni36  1  0.22222222  0.21782100  0.02380952  1.0
  Ni  Ni37  1  0.22222222  0.55115433  0.02380952  1.0
  Ni  Ni38  1  0.22222222  0.88448767  0.02380952  1.0
  Ni  Ni39  1  0.55555556  0.21782100  0.02380952  1.0
  Ni  Ni40  1  0.55555556  0.55115433  0.02380952  1.0
  Ni  Ni41  1  0.55555556  0.88448767  0.02380952  1.0
  Ni  Ni42  1  0.88888889  0.21782100  0.02380952  1.0
  Ni  Ni43  1  0.88888889  0.55115433  0.02380952  1.0
  Ni  Ni44  1  0.88888889  0.88448767  0.02380952  1.0
  Ni  Ni45  1  0.11111111  0.21782100  0.07142857  1.0
  Ni  Ni46  1  0.11111111  0.55115433  0.07142857  1.0
  Ni  Ni47  1  0.11111111  0.88448767  0.07142857  1.0
  Ni  Ni48  1  0.44444444  0.21782100  0.07142857  1.0
  Ni  Ni49  1  0.44444444  0.55115433  0.07142857  1.0
  Ni  Ni50  1  0.44444444  0.88448767  0.07142857  1.0
  Ni  Ni51  1  0.77777778  0.21782100  0.07142857  1.0
  Ni  Ni52  1  0.77777778  0.55115433  0.07142857  1.0
  Ni  Ni53  1  0.77777778  0.88448767  0.07142857  1.0
  Ti  Ti54  1  0.00000000  0.24144900  0.26190476  1.0
  Ti  Ti55  1  0.00000000  0.57478233  0.26190476  1.0
  Ti  Ti56  1  0.00000000  0.90811567  0.26190476  1.0
  Ti  Ti57  1  0.33333333  0.24144900  0.26190476  1.0
  Ti  Ti58  1  0.33333333  0.57478233  0.26190476  1.0
  Ti  Ti59  1  0.33333333  0.90811567  0.26190476  1.0
  Ti  Ti60  1  0.66666667  0.24144900  0.26190476  1.0
  Ti  Ti61  1  0.66666667  0.57478233  0.26190476  1.0
  Ti  Ti62  1  0.66666667  0.90811567  0.26190476  1.0
  Ti  Ti63  1  0.11111111  0.04908200  0.21428571  1.0
  Ti  Ti64  1  0.11111111  0.38241533  0.21428571  1.0
  Ti  Ti65  1  0.11111111  0.71574867  0.21428571  1.0
  Ti  Ti66  1  0.44444444  0.04908200  0.21428571  1.0
  Ti  Ti67  1  0.44444444  0.38241533  0.21428571  1.0
  Ti  Ti68  1  0.44444444  0.71574867  0.21428571  1.0
  Ti  Ti69  1  0.77777778  0.04908200  0.21428571  1.0
  Ti  Ti70  1  0.77777778  0.38241533  0.21428571  1.0
  Ti  Ti71  1  0.77777778  0.71574867  0.21428571  1.0
  Ti  Ti72  1  0.22222222  0.04908200  0.16666667  1.0
  Ti  Ti73  1  0.22222222  0.38241533  0.16666667  1.0
  Ti  Ti74  1  0.22222222  0.71574867  0.16666667  1.0
  Ti  Ti75  1  0.55555556  0.04908200  0.16666667  1.0
  Ti  Ti76  1  0.55555556  0.38241533  0.16666667  1.0
  Ti  Ti77  1  0.55555556  0.71574867  0.16666667  1.0
  Ti  Ti78  1  0.88888889  0.04908200  0.16666667  1.0
  Ti  Ti79  1  0.88888889  0.38241533  0.16666667  1.0
  Ti  Ti80  1  0.88888889  0.71574867  0.16666667  1.0
  Ni  Ni81  1  0.00000000  0.07141133  0.26190476  1.0
  Ni  Ni82  1  0.00000000  0.40474467  0.26190476  1.0
  Ni  Ni83  1  0.00000000  0.73807800  0.26190476  1.0
  Ni  Ni84  1  0.33333333  0.07141133  0.26190476  1.0
  Ni  Ni85  1  0.33333333  0.40474467  0.26190476  1.0
  Ni  Ni86  1  0.33333333  0.73807800  0.26190476  1.0
  Ni  Ni87  1  0.66666667  0.07141133  0.26190476  1.0
  Ni  Ni88  1  0.66666667  0.40474467  0.26190476  1.0
  Ni  Ni89  1  0.66666667  0.73807800  0.26190476  1.0
  Ni  Ni90  1  0.22222222  0.21782100  0.16666667  1.0
  Ni  Ni91  1  0.22222222  0.55115433  0.16666667  1.0
  Ni  Ni92  1  0.22222222  0.88448767  0.16666667  1.0
  Ni  Ni93  1  0.55555556  0.21782100  0.16666667  1.0
  Ni  Ni94  1  0.55555556  0.55115433  0.16666667  1.0
  Ni  Ni95  1  0.55555556  0.88448767  0.16666667  1.0
  Ni  Ni96  1  0.88888889  0.21782100  0.16666667  1.0
  Ni  Ni97  1  0.88888889  0.55115433  0.16666667  1.0
  Ni  Ni98  1  0.88888889  0.88448767  0.16666667  1.0
  Ni  Ni99  1  0.11111111  0.21782100  0.21428571  1.0
  Ni  Ni100  1  0.11111111  0.55115433  0.21428571  1.0
  Ni  Ni101  1  0.11111111  0.88448767  0.21428571  1.0
  Ni  Ni102  1  0.44444444  0.21782100  0.21428571  1.0
  Ni  Ni103  1  0.44444444  0.55115433  0.21428571  1.0
  Ni  Ni104  1  0.44444444  0.88448767  0.21428571  1.0
  Ni  Ni105  1  0.77777778  0.21782100  0.21428571  1.0
  Ni  Ni106  1  0.77777778  0.55115433  0.21428571  1.0
  Ni  Ni107  1  0.77777778  0.88448767  0.21428571  1.0
  Ti  Ti108  1  0.00000000  0.24144900  0.40476190  1.0
  Ti  Ti109  1  0.00000000  0.57478233  0.40476190  1.0
  Ti  Ti110  1  0.00000000  0.90811567  0.40476190  1.0
  Ti  Ti111  1  0.33333333  0.24144900  0.40476190  1.0
  Ti  Ti112  1  0.33333333  0.57478233  0.40476190  1.0
  Ti  Ti113  1  0.33333333  0.90811567  0.40476190  1.0
  Ti  Ti114  1  0.66666667  0.24144900  0.40476190  1.0
  Ti  Ti115  1  0.66666667  0.57478233  0.40476190  1.0
  Ti  Ti116  1  0.66666667  0.90811567  0.40476190  1.0
  Ti  Ti117  1  0.11111111  0.04908200  0.35714286  1.0
  Ti  Ti118  1  0.11111111  0.38241533  0.35714286  1.0
  Ti  Ti119  1  0.11111111  0.71574867  0.35714286  1.0
  Ti  Ti120  1  0.44444444  0.04908200  0.35714286  1.0
  Ti  Ti121  1  0.44444444  0.38241533  0.35714286  1.0
  Ti  Ti122  1  0.44444444  0.71574867  0.35714286  1.0
  Ti  Ti123  1  0.77777778  0.04908200  0.35714286  1.0
  Ti  Ti124  1  0.77777778  0.38241533  0.35714286  1.0
  Ti  Ti125  1  0.77777778  0.71574867  0.35714286  1.0
  Ti  Ti126  1  0.22222222  0.04908200  0.30952381  1.0
  Ti  Ti127  1  0.22222222  0.38241533  0.30952381  1.0
  Ti  Ti128  1  0.22222222  0.71574867  0.30952381  1.0
  Ti  Ti129  1  0.55555556  0.04908200  0.30952381  1.0
  Ti  Ti130  1  0.55555556  0.38241533  0.30952381  1.0
  Ti  Ti131  1  0.55555556  0.71574867  0.30952381  1.0
  Ti  Ti132  1  0.88888889  0.04908200  0.30952381  1.0
  Ti  Ti133  1  0.88888889  0.38241533  0.30952381  1.0
  Ti  Ti134  1  0.88888889  0.71574867  0.30952381  1.0
  Ni  Ni135  1  0.00000000  0.07141133  0.40476190  1.0
  Ni  Ni136  1  0.00000000  0.40474467  0.40476190  1.0
  Ni  Ni137  1  0.00000000  0.73807800  0.40476190  1.0
  Ni  Ni138  1  0.33333333  0.07141133  0.40476190  1.0
  Ni  Ni139  1  0.33333333  0.40474467  0.40476190  1.0
  Ni  Ni140  1  0.33333333  0.73807800  0.40476190  1.0
  Ni  Ni141  1  0.66666667  0.07141133  0.40476190  1.0
  Ni  Ni142  1  0.66666667  0.40474467  0.40476190  1.0
  Ni  Ni143  1  0.66666667  0.73807800  0.40476190  1.0
  Ni  Ni144  1  0.22222222  0.21782100  0.30952381  1.0
  Ni  Ni145  1  0.22222222  0.55115433  0.30952381  1.0
  Ni  Ni146  1  0.22222222  0.88448767  0.30952381  1.0
  Ni  Ni147  1  0.55555556  0.21782100  0.30952381  1.0
  Ni  Ni148  1  0.55555556  0.55115433  0.30952381  1.0
  Ni  Ni149  1  0.55555556  0.88448767  0.30952381  1.0
  Ni  Ni150  1  0.88888889  0.21782100  0.30952381  1.0
  Ni  Ni151  1  0.88888889  0.55115433  0.30952381  1.0
  Ni  Ni152  1  0.88888889  0.88448767  0.30952381  1.0
  Ni  Ni153  1  0.11111111  0.21782100  0.35714286  1.0
  Ni  Ni154  1  0.11111111  0.55115433  0.35714286  1.0
  Ni  Ni155  1  0.11111111  0.88448767  0.35714286  1.0
  Ni  Ni156  1  0.44444444  0.21782100  0.35714286  1.0
  Ni  Ni157  1  0.44444444  0.55115433  0.35714286  1.0
  Ni  Ni158  1  0.44444444  0.88448767  0.35714286  1.0
  Ni  Ni159  1  0.77777778  0.21782100  0.35714286  1.0
  Ni  Ni160  1  0.77777778  0.55115433  0.35714286  1.0
  Ni  Ni161  1  0.77777778  0.88448767  0.35714286  1.0
