# generated using pymatgen
data_TiNi
_symmetry_space_group_name_H-M   'P 1'
_cell_length_a   18.47413801
_cell_length_b   33.94995619
_cell_length_c   32.83381846
_cell_angle_alpha   84.81357407
_cell_angle_beta   84.61912676
_cell_angle_gamma   74.21198498
_symmetry_Int_Tables_number   1
_chemical_formula_structural   TiNi
_chemical_formula_sum   'Ti288 Ni288'
_cell_volume   19683.74306818
_cell_formula_units_Z   288
loop_
 _symmetry_equiv_pos_site_id
 _symmetry_equiv_pos_as_xyz
  1  'x, y, z'
loop_
 _atom_site_type_symbol
 _atom_site_label
 _atom_site_symmetry_multiplicity
 _atom_site_fract_x
 _atom_site_fract_y
 _atom_site_fract_z
 _atom_site_occupancy
  Ni  Ni0  1  0.30110480  0.22574533  0.10825520  1.0
  Ni  Ni1  1  0.30110480  0.55907867  0.10825520  1.0
  Ni  Ni2  1  0.30110480  0.89241200  0.10825520  1.0
  Ni  Ni3  1  0.63443813  0.22574533  0.10825520  1.0
  Ni  Ni4  1  0.63443813  0.55907867  0.10825520  1.0
  Ni  Ni5  1  0.63443813  0.89241200  0.10825520  1.0
  Ni  Ni6  1  0.96777147  0.22574533  0.10825520  1.0
  Ni  Ni7  1  0.96777147  0.55907867  0.10825520  1.0
  Ni  Ni8  1  0.96777147  0.89241200  0.10825520  1.0
  Ni  Ni9  1  0.23443813  0.05907867  0.00825520  1.0
  Ni  Ni10  1  0.23443813  0.39241200  0.00825520  1.0
  Ni  Ni11  1  0.23443813  0.72574533  0.00825520  1.0
  Ni  Ni12  1  0.56777147  0.05907867  0.00825520  1.0
  Ni  Ni13  1  0.56777147  0.39241200  0.00825520  1.0
  Ni  Ni14  1  0.56777147  0.72574533  0.00825520  1.0
  Ni  Ni15  1  0.90110480  0.05907867  0.00825520  1.0
  Ni  Ni16  1  0.90110480  0.39241200  0.00825520  1.0
  Ni  Ni17  1  0.90110480  0.72574533  0.00825520  1.0
  Ni  Ni18  1  0.14743387  0.15088600  0.15317080  1.0
  Ni  Ni19  1  0.14743387  0.48421933  0.15317080  1.0
  Ni  Ni20  1  0.14743387  0.81755267  0.15317080  1.0
  Ni  Ni21  1  0.48076720  0.15088600  0.15317080  1.0
  Ni  Ni22  1  0.48076720  0.48421933  0.15317080  1.0
  Ni  Ni23  1  0.48076720  0.81755267  0.15317080  1.0
  Ni  Ni24  1  0.81410053  0.15088600  0.15317080  1.0
  Ni  Ni25  1  0.81410053  0.48421933  0.15317080  1.0
  Ni  Ni26  1  0.81410053  0.81755267  0.15317080  1.0
  Ni  Ni27  1  0.08076720  0.31755267  0.05317080  1.0
  Ni  Ni28  1  0.08076720  0.65088600  0.05317080  1.0
  Ni  Ni29  1  0.08076720  0.98421933  0.05317080  1.0
  Ni  Ni30  1  0.41410053  0.31755267  0.05317080  1.0
  Ni  Ni31  1  0.41410053  0.65088600  0.05317080  1.0
  Ni  Ni32  1  0.41410053  0.98421933  0.05317080  1.0
  Ni  Ni33  1  0.74743387  0.31755267  0.05317080  1.0
  Ni  Ni34  1  0.74743387  0.65088600  0.05317080  1.0
  Ni  Ni35  1  0.74743387  0.98421933  0.05317080  1.0
  Ni  Ni36  1  0.05082347  0.05907867  0.00825520  1.0
  Ni  Ni37  1  0.05082347  0.39241200  0.00825520  1.0
  Ni  Ni38  1  0.05082347  0.72574533  0.00825520  1.0
  Ni  Ni39  1  0.38415680  0.05907867  0.00825520  1.0
  Ni  Ni40  1  0.38415680  0.39241200  0.00825520  1.0
  Ni  Ni41  1  0.38415680  0.72574533  0.00825520  1.0
  Ni  Ni42  1  0.71749013  0.05907867  0.00825520  1.0
  Ni  Ni43  1  0.71749013  0.39241200  0.00825520  1.0
  Ni  Ni44  1  0.71749013  0.72574533  0.00825520  1.0
  Ni  Ni45  1  0.11749013  0.22574533  0.10825520  1.0
  Ni  Ni46  1  0.11749013  0.55907867  0.10825520  1.0
  Ni  Ni47  1  0.11749013  0.89241200  0.10825520  1.0
  Ni  Ni48  1  0.45082347  0.22574533  0.10825520  1.0
  Ni  Ni49  1  0.45082347  0.55907867  0.10825520  1.0
  Ni  Ni50  1  0.45082347  0.89241200  0.10825520  1.0
  Ni  Ni51  1  0.78415680  0.22574533  0.10825520  1.0
  Ni  Ni52  1  0.78415680  0.55907867  0.10825520  1.0
  Ni  Ni53  1  0.78415680  0.89241200  0.10825520  1.0
  Ni  Ni54  1  0.33104853  0.15088600  0.15317080  1.0
  Ni  Ni55  1  0.33104853  0.48421933  0.15317080  1.0
  Ni  Ni56  1  0.33104853  0.81755267  0.15317080  1.0
  Ni  Ni57  1  0.66438187  0.15088600  0.15317080  1.0
  Ni  Ni58  1  0.66438187  0.48421933  0.15317080  1.0
  Ni  Ni59  1  0.66438187  0.81755267  0.15317080  1.0
  Ni  Ni60  1  0.99771520  0.15088600  0.15317080  1.0
  Ni  Ni61  1  0.99771520  0.48421933  0.15317080  1.0
  Ni  Ni62  1  0.99771520  0.81755267  0.15317080  1.0
  Ni  Ni63  1  0.26438187  0.31755267  0.05317080  1.0
  Ni  Ni64  1  0.26438187  0.65088600  0.05317080  1.0
  Ni  Ni65  1  0.26438187  0.98421933  0.05317080  1.0
  Ni  Ni66  1  0.59771520  0.31755267  0.05317080  1.0
  Ni  Ni67  1  0.59771520  0.65088600  0.05317080  1.0
  Ni  Ni68  1  0.59771520  0.98421933  0.05317080  1.0
  Ni  Ni69  1  0.93104853  0.31755267  0.05317080  1.0
  Ni  Ni70  1  0.93104853  0.65088600  0.05317080  1.0
  Ni  Ni71  1  0.93104853  0.98421933  0.05317080  1.0
  Ni  Ni72  1  0.18207227  0.10758800  0.07523440  1.0
  Ni  Ni73  1  0.18207227  0.44092133  0.07523440  1.0
  Ni  Ni74  1  0.18207227  0.77425467  0.07523440  1.0
  Ni  Ni75  1  0.51540560  0.10758800  0.07523440  1.0
  Ni  Ni76  1  0.51540560  0.44092133  0.07523440  1.0
  Ni  Ni77  1  0.51540560  0.77425467  0.07523440  1.0
  Ni  Ni78  1  0.84873893  0.10758800  0.07523440  1.0
  Ni  Ni79  1  0.84873893  0.44092133  0.07523440  1.0
  Ni  Ni80  1  0.84873893  0.77425467  0.07523440  1.0
  Ni  Ni81  1  0.24873893  0.27425467  0.17523440  1.0
  Ni  Ni82  1  0.24873893  0.60758800  0.17523440  1.0
  Ni  Ni83  1  0.24873893  0.94092133  0.17523440  1.0
  Ni  Ni84  1  0.58207227  0.27425467  0.17523440  1.0
  Ni  Ni85  1  0.58207227  0.60758800  0.17523440  1.0
  Ni  Ni86  1  0.58207227  0.94092133  0.17523440  1.0
  Ni  Ni87  1  0.91540560  0.27425467  0.17523440  1.0
  Ni  Ni88  1  0.91540560  0.60758800  0.17523440  1.0
  Ni  Ni89  1  0.91540560  0.94092133  0.17523440  1.0
  Ni  Ni90  1  0.00240987  0.18244733  0.03031880  1.0
  Ni  Ni91  1  0.00240987  0.51578067  0.03031880  1.0
  Ni  Ni92  1  0.00240987  0.84911400  0.03031880  1.0
  Ni  Ni93  1  0.33574320  0.18244733  0.03031880  1.0
  Ni  Ni94  1  0.33574320  0.51578067  0.03031880  1.0
  Ni  Ni95  1  0.33574320  0.84911400  0.03031880  1.0
  Ni  Ni96  1  0.66907653  0.18244733  0.03031880  1.0
  Ni  Ni97  1  0.66907653  0.51578067  0.03031880  1.0
  Ni  Ni98  1  0.66907653  0.84911400  0.03031880  1.0
  Ni  Ni99  1  0.06907653  0.01578067  0.13031880  1.0
  Ni  Ni100  1  0.06907653  0.34911400  0.13031880  1.0
  Ni  Ni101  1  0.06907653  0.68244733  0.13031880  1.0
  Ni  Ni102  1  0.40240987  0.01578067  0.13031880  1.0
  Ni  Ni103  1  0.40240987  0.34911400  0.13031880  1.0
  Ni  Ni104  1  0.40240987  0.68244733  0.13031880  1.0
  Ni  Ni105  1  0.73574320  0.01578067  0.13031880  1.0
  Ni  Ni106  1  0.73574320  0.34911400  0.13031880  1.0
  Ni  Ni107  1  0.73574320  0.68244733  0.13031880  1.0
  Ni  Ni108  1  0.03235360  0.10758800  0.07523440  1.0
  Ni  Ni109  1  0.03235360  0.44092133  0.07523440  1.0
  Ni  Ni110  1  0.03235360  0.77425467  0.07523440  1.0
  Ni  Ni111  1  0.36568693  0.10758800  0.07523440  1.0
  Ni  Ni112  1  0.36568693  0.44092133  0.07523440  1.0
  Ni  Ni113  1  0.36568693  0.77425467  0.07523440  1.0
  Ni  Ni114  1  0.69902027  0.10758800  0.07523440  1.0
  Ni  Ni115  1  0.69902027  0.44092133  0.07523440  1.0
  Ni  Ni116  1  0.69902027  0.77425467  0.07523440  1.0
  Ni  Ni117  1  0.09902027  0.27425467  0.17523440  1.0
  Ni  Ni118  1  0.09902027  0.60758800  0.17523440  1.0
  Ni  Ni119  1  0.09902027  0.94092133  0.17523440  1.0
  Ni  Ni120  1  0.43235360  0.27425467  0.17523440  1.0
  Ni  Ni121  1  0.43235360  0.60758800  0.17523440  1.0
  Ni  Ni122  1  0.43235360  0.94092133  0.17523440  1.0
  Ni  Ni123  1  0.76568693  0.27425467  0.17523440  1.0
  Ni  Ni124  1  0.76568693  0.60758800  0.17523440  1.0
  Ni  Ni125  1  0.76568693  0.94092133  0.17523440  1.0
  Ni  Ni126  1  0.21879520  0.01578067  0.13031880  1.0
  Ni  Ni127  1  0.21879520  0.34911400  0.13031880  1.0
  Ni  Ni128  1  0.21879520  0.68244733  0.13031880  1.0
  Ni  Ni129  1  0.55212853  0.01578067  0.13031880  1.0
  Ni  Ni130  1  0.55212853  0.34911400  0.13031880  1.0
  Ni  Ni131  1  0.55212853  0.68244733  0.13031880  1.0
  Ni  Ni132  1  0.88546187  0.01578067  0.13031880  1.0
  Ni  Ni133  1  0.88546187  0.34911400  0.13031880  1.0
  Ni  Ni134  1  0.88546187  0.68244733  0.13031880  1.0
  Ni  Ni135  1  0.15212853  0.18244733  0.03031880  1.0
  Ni  Ni136  1  0.15212853  0.51578067  0.03031880  1.0
  Ni  Ni137  1  0.15212853  0.84911400  0.03031880  1.0
  Ni  Ni138  1  0.48546187  0.18244733  0.03031880  1.0
  Ni  Ni139  1  0.48546187  0.51578067  0.03031880  1.0
  Ni  Ni140  1  0.48546187  0.84911400  0.03031880  1.0
  Ni  Ni141  1  0.81879520  0.18244733  0.03031880  1.0
  Ni  Ni142  1  0.81879520  0.51578067  0.03031880  1.0
  Ni  Ni143  1  0.81879520  0.84911400  0.03031880  1.0
  Ni  Ni144  1  0.10110480  0.22574533  0.30825520  1.0
  Ni  Ni145  1  0.10110480  0.55907867  0.30825520  1.0
  Ni  Ni146  1  0.10110480  0.89241200  0.30825520  1.0
  Ni  Ni147  1  0.43443813  0.22574533  0.30825520  1.0
  Ni  Ni148  1  0.43443813  0.55907867  0.30825520  1.0
  Ni  Ni149  1  0.43443813  0.89241200  0.30825520  1.0
  Ni  Ni150  1  0.76777147  0.22574533  0.30825520  1.0
  Ni  Ni151  1  0.76777147  0.55907867  0.30825520  1.0
  Ni  Ni152  1  0.76777147  0.89241200  0.30825520  1.0
  Ni  Ni153  1  0.03443813  0.05907867  0.20825520  1.0
  Ni  Ni154  1  0.03443813  0.39241200  0.20825520  1.0
  Ni  Ni155  1  0.03443813  0.72574533  0.20825520  1.0
  Ni  Ni156  1  0.36777147  0.05907867  0.20825520  1.0
  Ni  Ni157  1  0.36777147  0.39241200  0.20825520  1.0
  Ni  Ni158  1  0.36777147  0.72574533  0.20825520  1.0
  Ni  Ni159  1  0.70110480  0.05907867  0.20825520  1.0
  Ni  Ni160  1  0.70110480  0.39241200  0.20825520  1.0
  Ni  Ni161  1  0.70110480  0.72574533  0.20825520  1.0
  Ni  Ni162  1  0.28076720  0.15088600  0.35317080  1.0
  Ni  Ni163  1  0.28076720  0.48421933  0.35317080  1.0
  Ni  Ni164  1  0.28076720  0.81755267  0.35317080  1.0
  Ni  Ni165  1  0.61410053  0.15088600  0.35317080  1.0
  Ni  Ni166  1  0.61410053  0.48421933  0.35317080  1.0
  Ni  Ni167  1  0.61410053  0.81755267  0.35317080  1.0
  Ni  Ni168  1  0.94743387  0.15088600  0.35317080  1.0
  Ni  Ni169  1  0.94743387  0.48421933  0.35317080  1.0
  Ni  Ni170  1  0.94743387  0.81755267  0.35317080  1.0
  Ni  Ni171  1  0.21410053  0.31755267  0.25317080  1.0
  Ni  Ni172  1  0.21410053  0.65088600  0.25317080  1.0
  Ni  Ni173  1  0.21410053  0.98421933  0.25317080  1.0
  Ni  Ni174  1  0.54743387  0.31755267  0.25317080  1.0
  Ni  Ni175  1  0.54743387  0.65088600  0.25317080  1.0
  Ni  Ni176  1  0.54743387  0.98421933  0.25317080  1.0
  Ni  Ni177  1  0.88076720  0.31755267  0.25317080  1.0
  Ni  Ni178  1  0.88076720  0.65088600  0.25317080  1.0
  Ni  Ni179  1  0.88076720  0.98421933  0.25317080  1.0
  Ni  Ni180  1  0.18415680  0.05907867  0.20825520  1.0
  Ni  Ni181  1  0.18415680  0.39241200  0.20825520  1.0
  Ni  Ni182  1  0.18415680  0.72574533  0.20825520  1.0
  Ni  Ni183  1  0.51749013  0.05907867  0.20825520  1.0
  Ni  Ni184  1  0.51749013  0.39241200  0.20825520  1.0
  Ni  Ni185  1  0.51749013  0.72574533  0.20825520  1.0
  Ni  Ni186  1  0.85082347  0.05907867  0.20825520  1.0
  Ni  Ni187  1  0.85082347  0.39241200  0.20825520  1.0
  Ni  Ni188  1  0.85082347  0.72574533  0.20825520  1.0
  Ni  Ni189  1  0.25082347  0.22574533  0.30825520  1.0
  Ni  Ni190  1  0.25082347  0.55907867  0.30825520  1.0
  Ni  Ni191  1  0.25082347  0.89241200  0.30825520  1.0
  Ni  Ni192  1  0.58415680  0.22574533  0.30825520  1.0
  Ni  Ni193  1  0.58415680  0.55907867  0.30825520  1.0
  Ni  Ni194  1  0.58415680  0.89241200  0.30825520  1.0
  Ni  Ni195  1  0.91749013  0.22574533  0.30825520  1.0
  Ni  Ni196  1  0.91749013  0.55907867  0.30825520  1.0
  Ni  Ni197  1  0.91749013  0.89241200  0.30825520  1.0
  Ni  Ni198  1  0.13104853  0.15088600  0.35317080  1.0
  Ni  Ni199  1  0.13104853  0.48421933  0.35317080  1.0
  Ni  Ni200  1  0.13104853  0.81755267  0.35317080  1.0
  Ni  Ni201  1  0.46438187  0.15088600  0.35317080  1.0
  Ni  Ni202  1  0.46438187  0.48421933  0.35317080  1.0
  Ni  Ni203  1  0.46438187  0.81755267  0.35317080  1.0
  Ni  Ni204  1  0.79771520  0.15088600  0.35317080  1.0
  Ni  Ni205  1  0.79771520  0.48421933  0.35317080  1.0
  Ni  Ni206  1  0.79771520  0.81755267  0.35317080  1.0
  Ni  Ni207  1  0.06438187  0.31755267  0.25317080  1.0
  Ni  Ni208  1  0.06438187  0.65088600  0.25317080  1.0
  Ni  Ni209  1  0.06438187  0.98421933  0.25317080  1.0
  Ni  Ni210  1  0.39771520  0.31755267  0.25317080  1.0
  Ni  Ni211  1  0.39771520  0.65088600  0.25317080  1.0
  Ni  Ni212  1  0.39771520  0.98421933  0.25317080  1.0
  Ni  Ni213  1  0.73104853  0.31755267  0.25317080  1.0
  Ni  Ni214  1  0.73104853  0.65088600  0.25317080  1.0
  Ni  Ni215  1  0.73104853  0.98421933  0.25317080  1.0
  Ni  Ni216  1  0.31540560  0.10758800  0.27523440  1.0
  Ni  Ni217  1  0.31540560  0.44092133  0.27523440  1.0
  Ni  Ni218  1  0.31540560  0.77425467  0.27523440  1.0
  Ni  Ni219  1  0.64873893  0.10758800  0.27523440  1.0
  Ni  Ni220  1  0.64873893  0.44092133  0.27523440  1.0
  Ni  Ni221  1  0.64873893  0.77425467  0.27523440  1.0
  Ni  Ni222  1  0.98207227  0.10758800  0.27523440  1.0
  Ni  Ni223  1  0.98207227  0.44092133  0.27523440  1.0
  Ni  Ni224  1  0.98207227  0.77425467  0.27523440  1.0
  Ni  Ni225  1  0.04873893  0.27425467  0.37523440  1.0
  Ni  Ni226  1  0.04873893  0.60758800  0.37523440  1.0
  Ni  Ni227  1  0.04873893  0.94092133  0.37523440  1.0
  Ni  Ni228  1  0.38207227  0.27425467  0.37523440  1.0
  Ni  Ni229  1  0.38207227  0.60758800  0.37523440  1.0
  Ni  Ni230  1  0.38207227  0.94092133  0.37523440  1.0
  Ni  Ni231  1  0.71540560  0.27425467  0.37523440  1.0
  Ni  Ni232  1  0.71540560  0.60758800  0.37523440  1.0
  Ni  Ni233  1  0.71540560  0.94092133  0.37523440  1.0
  Ni  Ni234  1  0.13574320  0.18244733  0.23031880  1.0
  Ni  Ni235  1  0.13574320  0.51578067  0.23031880  1.0
  Ni  Ni236  1  0.13574320  0.84911400  0.23031880  1.0
  Ni  Ni237  1  0.46907653  0.18244733  0.23031880  1.0
  Ni  Ni238  1  0.46907653  0.51578067  0.23031880  1.0
  Ni  Ni239  1  0.46907653  0.84911400  0.23031880  1.0
  Ni  Ni240  1  0.80240987  0.18244733  0.23031880  1.0
  Ni  Ni241  1  0.80240987  0.51578067  0.23031880  1.0
  Ni  Ni242  1  0.80240987  0.84911400  0.23031880  1.0
  Ni  Ni243  1  0.20240987  0.01578067  0.33031880  1.0
  Ni  Ni244  1  0.20240987  0.34911400  0.33031880  1.0
  Ni  Ni245  1  0.20240987  0.68244733  0.33031880  1.0
  Ni  Ni246  1  0.53574320  0.01578067  0.33031880  1.0
  Ni  Ni247  1  0.53574320  0.34911400  0.33031880  1.0
  Ni  Ni248  1  0.53574320  0.68244733  0.33031880  1.0
  Ni  Ni249  1  0.86907653  0.01578067  0.33031880  1.0
  Ni  Ni250  1  0.86907653  0.34911400  0.33031880  1.0
  Ni  Ni251  1  0.86907653  0.68244733  0.33031880  1.0
  Ni  Ni252  1  0.16568693  0.10758800  0.27523440  1.0
  Ni  Ni253  1  0.16568693  0.44092133  0.27523440  1.0
  Ni  Ni254  1  0.16568693  0.77425467  0.27523440  1.0
  Ni  Ni255  1  0.49902027  0.10758800  0.27523440  1.0
  Ni  Ni256  1  0.49902027  0.44092133  0.27523440  1.0
  Ni  Ni257  1  0.49902027  0.77425467  0.27523440  1.0
  Ni  Ni258  1  0.83235360  0.10758800  0.27523440  1.0
  Ni  Ni259  1  0.83235360  0.44092133  0.27523440  1.0
  Ni  Ni260  1  0.83235360  0.77425467  0.27523440  1.0
  Ni  Ni261  1  0.23235360  0.27425467  0.37523440  1.0
  Ni  Ni262  1  0.23235360  0.60758800  0.37523440  1.0
  Ni  Ni263  1  0.23235360  0.94092133  0.37523440  1.0
  Ni  Ni264  1  0.56568693  0.27425467  0.37523440  1.0
  Ni  Ni265  1  0.56568693  0.60758800  0.37523440  1.0
  Ni  Ni266  1  0.56568693  0.94092133  0.37523440  1.0
  Ni  Ni267  1  0.89902027  0.27425467  0.37523440  1.0
  Ni  Ni268  1  0.89902027  0.60758800  0.37523440  1.0
  Ni  Ni269  1  0.89902027  0.94092133  0.37523440  1.0
  Ni  Ni270  1  0.01879520  0.01578067  0.33031880  1.0
  Ni  Ni271  1  0.01879520  0.34911400  0.33031880  1.0
  Ni  Ni272  1  0.01879520  0.68244733  0.33031880  1.0
  Ni  Ni273  1  0.35212853  0.01578067  0.33031880  1.0
  Ni  Ni274  1  0.35212853  0.34911400  0.33031880  1.0
  Ni  Ni275  1  0.35212853  0.68244733  0.33031880  1.0
  Ni  Ni276  1  0.68546187  0.01578067  0.33031880  1.0
  Ni  Ni277  1  0.68546187  0.34911400  0.33031880  1.0
  Ni  Ni278  1  0.68546187  0.68244733  0.33031880  1.0
  Ni  Ni279  1  0.28546187  0.18244733  0.23031880  1.0
  Ni  Ni280  1  0.28546187  0.51578067  0.23031880  1.0
  Ni  Ni281  1  0.28546187  0.84911400  0.23031880  1.0
  Ni  Ni282  1  0.61879520  0.18244733  0.23031880  1.0
  Ni  Ni283  1  0.61879520  0.51578067  0.23031880  1.0
  Ni  Ni284  1  0.61879520  0.84911400  0.23031880  1.0
  Ni  Ni285  1  0.95212853  0.18244733  0.23031880  1.0
  Ni  Ni286  1  0.95212853  0.51578067  0.23031880  1.0
  Ni  Ni287  1  0.95212853  0.84911400  0.23031880  1.0
  Ti  Ti288  1  0.30534320  0.04530667  0.07329680  1.0
  Ti  Ti289  1  0.30534320  0.37864000  0.07329680  1.0
  Ti  Ti290  1  0.30534320  0.71197333  0.07329680  1.0
  Ti  Ti291  1  0.63867653  0.04530667  0.07329680  1.0
  Ti  Ti292  1  0.63867653  0.37864000  0.07329680  1.0
  Ti  Ti293  1  0.63867653  0.71197333  0.07329680  1.0
  Ti  Ti294  1  0.97200987  0.04530667  0.07329680  1.0
  Ti  Ti295  1  0.97200987  0.37864000  0.07329680  1.0
  Ti  Ti296  1  0.97200987  0.71197333  0.07329680  1.0
  Ti  Ti297  1  0.03867653  0.21197333  0.17329680  1.0
  Ti  Ti298  1  0.03867653  0.54530667  0.17329680  1.0
  Ti  Ti299  1  0.03867653  0.87864000  0.17329680  1.0
  Ti  Ti300  1  0.37200987  0.21197333  0.17329680  1.0
  Ti  Ti301  1  0.37200987  0.54530667  0.17329680  1.0
  Ti  Ti302  1  0.37200987  0.87864000  0.17329680  1.0
  Ti  Ti303  1  0.70534320  0.21197333  0.17329680  1.0
  Ti  Ti304  1  0.70534320  0.54530667  0.17329680  1.0
  Ti  Ti305  1  0.70534320  0.87864000  0.17329680  1.0
  Ti  Ti306  1  0.11116720  0.12136000  0.01019280  1.0
  Ti  Ti307  1  0.11116720  0.45469333  0.01019280  1.0
  Ti  Ti308  1  0.11116720  0.78802667  0.01019280  1.0
  Ti  Ti309  1  0.44450053  0.12136000  0.01019280  1.0
  Ti  Ti310  1  0.44450053  0.45469333  0.01019280  1.0
  Ti  Ti311  1  0.44450053  0.78802667  0.01019280  1.0
  Ti  Ti312  1  0.77783387  0.12136000  0.01019280  1.0
  Ti  Ti313  1  0.77783387  0.45469333  0.01019280  1.0
  Ti  Ti314  1  0.77783387  0.78802667  0.01019280  1.0
  Ti  Ti315  1  0.17783387  0.28802667  0.11019280  1.0
  Ti  Ti316  1  0.17783387  0.62136000  0.11019280  1.0
  Ti  Ti317  1  0.17783387  0.95469333  0.11019280  1.0
  Ti  Ti318  1  0.51116720  0.28802667  0.11019280  1.0
  Ti  Ti319  1  0.51116720  0.62136000  0.11019280  1.0
  Ti  Ti320  1  0.51116720  0.95469333  0.11019280  1.0
  Ti  Ti321  1  0.84450053  0.28802667  0.11019280  1.0
  Ti  Ti322  1  0.84450053  0.62136000  0.11019280  1.0
  Ti  Ti323  1  0.84450053  0.95469333  0.11019280  1.0
  Ti  Ti324  1  0.20825520  0.20833333  0.16674480  1.0
  Ti  Ti325  1  0.20825520  0.54166667  0.16674480  1.0
  Ti  Ti326  1  0.20825520  0.87500000  0.16674480  1.0
  Ti  Ti327  1  0.54158853  0.20833333  0.16674480  1.0
  Ti  Ti328  1  0.54158853  0.54166667  0.16674480  1.0
  Ti  Ti329  1  0.54158853  0.87500000  0.16674480  1.0
  Ti  Ti330  1  0.87492187  0.20833333  0.16674480  1.0
  Ti  Ti331  1  0.87492187  0.54166667  0.16674480  1.0
  Ti  Ti332  1  0.87492187  0.87500000  0.16674480  1.0
  Ti  Ti333  1  0.14158853  0.04166667  0.06674480  1.0
  Ti  Ti334  1  0.14158853  0.37500000  0.06674480  1.0
  Ti  Ti335  1  0.14158853  0.70833333  0.06674480  1.0
  Ti  Ti336  1  0.47492187  0.04166667  0.06674480  1.0
  Ti  Ti337  1  0.47492187  0.37500000  0.06674480  1.0
  Ti  Ti338  1  0.47492187  0.70833333  0.06674480  1.0
  Ti  Ti339  1  0.80825520  0.04166667  0.06674480  1.0
  Ti  Ti340  1  0.80825520  0.37500000  0.06674480  1.0
  Ti  Ti341  1  0.80825520  0.70833333  0.06674480  1.0
  Ti  Ti342  1  0.27492187  0.12500000  0.01674480  1.0
  Ti  Ti343  1  0.27492187  0.45833333  0.01674480  1.0
  Ti  Ti344  1  0.27492187  0.79166667  0.01674480  1.0
  Ti  Ti345  1  0.60825520  0.12500000  0.01674480  1.0
  Ti  Ti346  1  0.60825520  0.45833333  0.01674480  1.0
  Ti  Ti347  1  0.60825520  0.79166667  0.01674480  1.0
  Ti  Ti348  1  0.94158853  0.12500000  0.01674480  1.0
  Ti  Ti349  1  0.94158853  0.45833333  0.01674480  1.0
  Ti  Ti350  1  0.94158853  0.79166667  0.01674480  1.0
  Ti  Ti351  1  0.00825520  0.29166667  0.11674480  1.0
  Ti  Ti352  1  0.00825520  0.62500000  0.11674480  1.0
  Ti  Ti353  1  0.00825520  0.95833333  0.11674480  1.0
  Ti  Ti354  1  0.34158853  0.29166667  0.11674480  1.0
  Ti  Ti355  1  0.34158853  0.62500000  0.11674480  1.0
  Ti  Ti356  1  0.34158853  0.95833333  0.11674480  1.0
  Ti  Ti357  1  0.67492187  0.29166667  0.11674480  1.0
  Ti  Ti358  1  0.67492187  0.62500000  0.11674480  1.0
  Ti  Ti359  1  0.67492187  0.95833333  0.11674480  1.0
  Ti  Ti360  1  0.24158853  0.16666667  0.09174480  1.0
  Ti  Ti361  1  0.24158853  0.50000000  0.09174480  1.0
  Ti  Ti362  1  0.24158853  0.83333333  0.09174480  1.0
  Ti  Ti363  1  0.57492187  0.16666667  0.09174480  1.0
  Ti  Ti364  1  0.57492187  0.50000000  0.09174480  1.0
  Ti  Ti365  1  0.57492187  0.83333333  0.09174480  1.0
  Ti  Ti366  1  0.90825520  0.16666667  0.09174480  1.0
  Ti  Ti367  1  0.90825520  0.50000000  0.09174480  1.0
  Ti  Ti368  1  0.90825520  0.83333333  0.09174480  1.0
  Ti  Ti369  1  0.30825520  0.33333333  0.19174480  1.0
  Ti  Ti370  1  0.30825520  0.66666667  0.19174480  1.0
  Ti  Ti371  1  0.30825520  0.00000000  0.19174480  1.0
  Ti  Ti372  1  0.64158853  0.33333333  0.19174480  1.0
  Ti  Ti373  1  0.64158853  0.66666667  0.19174480  1.0
  Ti  Ti374  1  0.64158853  0.00000000  0.19174480  1.0
  Ti  Ti375  1  0.97492187  0.33333333  0.19174480  1.0
  Ti  Ti376  1  0.97492187  0.66666667  0.19174480  1.0
  Ti  Ti377  1  0.97492187  0.00000000  0.19174480  1.0
  Ti  Ti378  1  0.04158853  0.25000000  0.04174480  1.0
  Ti  Ti379  1  0.04158853  0.58333333  0.04174480  1.0
  Ti  Ti380  1  0.04158853  0.91666667  0.04174480  1.0
  Ti  Ti381  1  0.37492187  0.25000000  0.04174480  1.0
  Ti  Ti382  1  0.37492187  0.58333333  0.04174480  1.0
  Ti  Ti383  1  0.37492187  0.91666667  0.04174480  1.0
  Ti  Ti384  1  0.70825520  0.25000000  0.04174480  1.0
  Ti  Ti385  1  0.70825520  0.58333333  0.04174480  1.0
  Ti  Ti386  1  0.70825520  0.91666667  0.04174480  1.0
  Ti  Ti387  1  0.10825520  0.08333333  0.14174480  1.0
  Ti  Ti388  1  0.10825520  0.41666667  0.14174480  1.0
  Ti  Ti389  1  0.10825520  0.75000000  0.14174480  1.0
  Ti  Ti390  1  0.44158853  0.08333333  0.14174480  1.0
  Ti  Ti391  1  0.44158853  0.41666667  0.14174480  1.0
  Ti  Ti392  1  0.44158853  0.75000000  0.14174480  1.0
  Ti  Ti393  1  0.77492187  0.08333333  0.14174480  1.0
  Ti  Ti394  1  0.77492187  0.41666667  0.14174480  1.0
  Ti  Ti395  1  0.77492187  0.75000000  0.14174480  1.0
  Ti  Ti396  1  0.27492187  0.08333333  0.14174480  1.0
  Ti  Ti397  1  0.27492187  0.41666667  0.14174480  1.0
  Ti  Ti398  1  0.27492187  0.75000000  0.14174480  1.0
  Ti  Ti399  1  0.60825520  0.08333333  0.14174480  1.0
  Ti  Ti400  1  0.60825520  0.41666667  0.14174480  1.0
  Ti  Ti401  1  0.60825520  0.75000000  0.14174480  1.0
  Ti  Ti402  1  0.94158853  0.08333333  0.14174480  1.0
  Ti  Ti403  1  0.94158853  0.41666667  0.14174480  1.0
  Ti  Ti404  1  0.94158853  0.75000000  0.14174480  1.0
  Ti  Ti405  1  0.20825520  0.25000000  0.04174480  1.0
  Ti  Ti406  1  0.20825520  0.58333333  0.04174480  1.0
  Ti  Ti407  1  0.20825520  0.91666667  0.04174480  1.0
  Ti  Ti408  1  0.54158853  0.25000000  0.04174480  1.0
  Ti  Ti409  1  0.54158853  0.58333333  0.04174480  1.0
  Ti  Ti410  1  0.54158853  0.91666667  0.04174480  1.0
  Ti  Ti411  1  0.87492187  0.25000000  0.04174480  1.0
  Ti  Ti412  1  0.87492187  0.58333333  0.04174480  1.0
  Ti  Ti413  1  0.87492187  0.91666667  0.04174480  1.0
  Ti  Ti414  1  0.07492187  0.16666667  0.09174480  1.0
  Ti  Ti415  1  0.07492187  0.50000000  0.09174480  1.0
  Ti  Ti416  1  0.07492187  0.83333333  0.09174480  1.0
  Ti  Ti417  1  0.40825520  0.16666667  0.09174480  1.0
  Ti  Ti418  1  0.40825520  0.50000000  0.09174480  1.0
  Ti  Ti419  1  0.40825520  0.83333333  0.09174480  1.0
  Ti  Ti420  1  0.74158853  0.16666667  0.09174480  1.0
  Ti  Ti421  1  0.74158853  0.50000000  0.09174480  1.0
  Ti  Ti422  1  0.74158853  0.83333333  0.09174480  1.0
  Ti  Ti423  1  0.14158853  0.00000000  0.19174480  1.0
  Ti  Ti424  1  0.14158853  0.33333333  0.19174480  1.0
  Ti  Ti425  1  0.14158853  0.66666667  0.19174480  1.0
  Ti  Ti426  1  0.47492187  0.00000000  0.19174480  1.0
  Ti  Ti427  1  0.47492187  0.33333333  0.19174480  1.0
  Ti  Ti428  1  0.47492187  0.66666667  0.19174480  1.0
  Ti  Ti429  1  0.80825520  0.00000000  0.19174480  1.0
  Ti  Ti430  1  0.80825520  0.33333333  0.19174480  1.0
  Ti  Ti431  1  0.80825520  0.66666667  0.19174480  1.0
  Ti  Ti432  1  0.10534320  0.04530667  0.27329680  1.0
  Ti  Ti433  1  0.10534320  0.37864000  0.27329680  1.0
  Ti  Ti434  1  0.10534320  0.71197333  0.27329680  1.0
  Ti  Ti435  1  0.43867653  0.04530667  0.27329680  1.0
  Ti  Ti436  1  0.43867653  0.37864000  0.27329680  1.0
  Ti  Ti437  1  0.43867653  0.71197333  0.27329680  1.0
  Ti  Ti438  1  0.77200987  0.04530667  0.27329680  1.0
  Ti  Ti439  1  0.77200987  0.37864000  0.27329680  1.0
  Ti  Ti440  1  0.77200987  0.71197333  0.27329680  1.0
  Ti  Ti441  1  0.17200987  0.21197333  0.37329680  1.0
  Ti  Ti442  1  0.17200987  0.54530667  0.37329680  1.0
  Ti  Ti443  1  0.17200987  0.87864000  0.37329680  1.0
  Ti  Ti444  1  0.50534320  0.21197333  0.37329680  1.0
  Ti  Ti445  1  0.50534320  0.54530667  0.37329680  1.0
  Ti  Ti446  1  0.50534320  0.87864000  0.37329680  1.0
  Ti  Ti447  1  0.83867653  0.21197333  0.37329680  1.0
  Ti  Ti448  1  0.83867653  0.54530667  0.37329680  1.0
  Ti  Ti449  1  0.83867653  0.87864000  0.37329680  1.0
  Ti  Ti450  1  0.24450053  0.12136000  0.21019280  1.0
  Ti  Ti451  1  0.24450053  0.45469333  0.21019280  1.0
  Ti  Ti452  1  0.24450053  0.78802667  0.21019280  1.0
  Ti  Ti453  1  0.57783387  0.12136000  0.21019280  1.0
  Ti  Ti454  1  0.57783387  0.45469333  0.21019280  1.0
  Ti  Ti455  1  0.57783387  0.78802667  0.21019280  1.0
  Ti  Ti456  1  0.91116720  0.12136000  0.21019280  1.0
  Ti  Ti457  1  0.91116720  0.45469333  0.21019280  1.0
  Ti  Ti458  1  0.91116720  0.78802667  0.21019280  1.0
  Ti  Ti459  1  0.31116720  0.28802667  0.31019280  1.0
  Ti  Ti460  1  0.31116720  0.62136000  0.31019280  1.0
  Ti  Ti461  1  0.31116720  0.95469333  0.31019280  1.0
  Ti  Ti462  1  0.64450053  0.28802667  0.31019280  1.0
  Ti  Ti463  1  0.64450053  0.62136000  0.31019280  1.0
  Ti  Ti464  1  0.64450053  0.95469333  0.31019280  1.0
  Ti  Ti465  1  0.97783387  0.28802667  0.31019280  1.0
  Ti  Ti466  1  0.97783387  0.62136000  0.31019280  1.0
  Ti  Ti467  1  0.97783387  0.95469333  0.31019280  1.0
  Ti  Ti468  1  0.00825520  0.20833333  0.36674480  1.0
  Ti  Ti469  1  0.00825520  0.54166667  0.36674480  1.0
  Ti  Ti470  1  0.00825520  0.87500000  0.36674480  1.0
  Ti  Ti471  1  0.34158853  0.20833333  0.36674480  1.0
  Ti  Ti472  1  0.34158853  0.54166667  0.36674480  1.0
  Ti  Ti473  1  0.34158853  0.87500000  0.36674480  1.0
  Ti  Ti474  1  0.67492187  0.20833333  0.36674480  1.0
  Ti  Ti475  1  0.67492187  0.54166667  0.36674480  1.0
  Ti  Ti476  1  0.67492187  0.87500000  0.36674480  1.0
  Ti  Ti477  1  0.27492187  0.04166667  0.26674480  1.0
  Ti  Ti478  1  0.27492187  0.37500000  0.26674480  1.0
  Ti  Ti479  1  0.27492187  0.70833333  0.26674480  1.0
  Ti  Ti480  1  0.60825520  0.04166667  0.26674480  1.0
  Ti  Ti481  1  0.60825520  0.37500000  0.26674480  1.0
  Ti  Ti482  1  0.60825520  0.70833333  0.26674480  1.0
  Ti  Ti483  1  0.94158853  0.04166667  0.26674480  1.0
  Ti  Ti484  1  0.94158853  0.37500000  0.26674480  1.0
  Ti  Ti485  1  0.94158853  0.70833333  0.26674480  1.0
  Ti  Ti486  1  0.07492187  0.12500000  0.21674480  1.0
  Ti  Ti487  1  0.07492187  0.45833333  0.21674480  1.0
  Ti  Ti488  1  0.07492187  0.79166667  0.21674480  1.0
  Ti  Ti489  1  0.40825520  0.12500000  0.21674480  1.0
  Ti  Ti490  1  0.40825520  0.45833333  0.21674480  1.0
  Ti  Ti491  1  0.40825520  0.79166667  0.21674480  1.0
  Ti  Ti492  1  0.74158853  0.12500000  0.21674480  1.0
  Ti  Ti493  1  0.74158853  0.45833333  0.21674480  1.0
  Ti  Ti494  1  0.74158853  0.79166667  0.21674480  1.0
  Ti  Ti495  1  0.14158853  0.29166667  0.31674480  1.0
  Ti  Ti496  1  0.14158853  0.62500000  0.31674480  1.0
  Ti  Ti497  1  0.14158853  0.95833333  0.31674480  1.0
  Ti  Ti498  1  0.47492187  0.29166667  0.31674480  1.0
  Ti  Ti499  1  0.47492187  0.62500000  0.31674480  1.0
  Ti  Ti500  1  0.47492187  0.95833333  0.31674480  1.0
  Ti  Ti501  1  0.80825520  0.29166667  0.31674480  1.0
  Ti  Ti502  1  0.80825520  0.62500000  0.31674480  1.0
  Ti  Ti503  1  0.80825520  0.95833333  0.31674480  1.0
  Ti  Ti504  1  0.04158853  0.16666667  0.29174480  1.0
  Ti  Ti505  1  0.04158853  0.50000000  0.29174480  1.0
  Ti  Ti506  1  0.04158853  0.83333333  0.29174480  1.0
  Ti  Ti507  1  0.37492187  0.16666667  0.29174480  1.0
  Ti  Ti508  1  0.37492187  0.50000000  0.29174480  1.0
  Ti  Ti509  1  0.37492187  0.83333333  0.29174480  1.0
  Ti  Ti510  1  0.70825520  0.16666667  0.29174480  1.0
  Ti  Ti511  1  0.70825520  0.50000000  0.29174480  1.0
  Ti  Ti512  1  0.70825520  0.83333333  0.29174480  1.0
  Ti  Ti513  1  0.10825520  0.33333333  0.39174480  1.0
  Ti  Ti514  1  0.10825520  0.66666667  0.39174480  1.0
  Ti  Ti515  1  0.10825520  0.00000000  0.39174480  1.0
  Ti  Ti516  1  0.44158853  0.33333333  0.39174480  1.0
  Ti  Ti517  1  0.44158853  0.66666667  0.39174480  1.0
  Ti  Ti518  1  0.44158853  0.00000000  0.39174480  1.0
  Ti  Ti519  1  0.77492187  0.33333333  0.39174480  1.0
  Ti  Ti520  1  0.77492187  0.66666667  0.39174480  1.0
  Ti  Ti521  1  0.77492187  0.00000000  0.39174480  1.0
  Ti  Ti522  1  0.17492187  0.25000000  0.24174480  1.0
  Ti  Ti523  1  0.17492187  0.58333333  0.24174480  1.0
  Ti  Ti524  1  0.17492187  0.91666667  0.24174480  1.0
  Ti  Ti525  1  0.50825520  0.25000000  0.24174480  1.0
  Ti  Ti526  1  0.50825520  0.58333333  0.24174480  1.0
  Ti  Ti527  1  0.50825520  0.91666667  0.24174480  1.0
  Ti  Ti528  1  0.84158853  0.25000000  0.24174480  1.0
  Ti  Ti529  1  0.84158853  0.58333333  0.24174480  1.0
  Ti  Ti530  1  0.84158853  0.91666667  0.24174480  1.0
  Ti  Ti531  1  0.24158853  0.08333333  0.34174480  1.0
  Ti  Ti532  1  0.24158853  0.41666667  0.34174480  1.0
  Ti  Ti533  1  0.24158853  0.75000000  0.34174480  1.0
  Ti  Ti534  1  0.57492187  0.08333333  0.34174480  1.0
  Ti  Ti535  1  0.57492187  0.41666667  0.34174480  1.0
  Ti  Ti536  1  0.57492187  0.75000000  0.34174480  1.0
  Ti  Ti537  1  0.90825520  0.08333333  0.34174480  1.0
  Ti  Ti538  1  0.90825520  0.41666667  0.34174480  1.0
  Ti  Ti539  1  0.90825520  0.75000000  0.34174480  1.0
  Ti  Ti540  1  0.07492187  0.08333333  0.34174480  1.0
  Ti  Ti541  1  0.07492187  0.41666667  0.34174480  1.0
  Ti  Ti542  1  0.07492187  0.75000000  0.34174480  1.0
  Ti  Ti543  1  0.40825520  0.08333333  0.34174480  1.0
  Ti  Ti544  1  0.40825520  0.41666667  0.34174480  1.0
  Ti  Ti545  1  0.40825520  0.75000000  0.34174480  1.0
  Ti  Ti546  1  0.74158853  0.08333333  0.34174480  1.0
  Ti  Ti547  1  0.74158853  0.41666667  0.34174480  1.0
  Ti  Ti548  1  0.74158853  0.75000000  0.34174480  1.0
  Ti  Ti549  1  0.00825520  0.25000000  0.24174480  1.0
  Ti  Ti550  1  0.00825520  0.58333333  0.24174480  1.0
  Ti  Ti551  1  0.00825520  0.91666667  0.24174480  1.0
  Ti  Ti552  1  0.34158853  0.25000000  0.24174480  1.0
  Ti  Ti553  1  0.34158853  0.58333333  0.24174480  1.0
  Ti  Ti554  1  0.34158853  0.91666667  0.24174480  1.0
  Ti  Ti555  1  0.67492187  0.25000000  0.24174480  1.0
  Ti  Ti556  1  0.67492187  0.58333333  0.24174480  1.0
  Ti  Ti557  1  0.67492187  0.91666667  0.24174480  1.0
  Ti  Ti558  1  0.20825520  0.16666667  0.29174480  1.0
  Ti  Ti559  1  0.20825520  0.50000000  0.29174480  1.0
  Ti  Ti560  1  0.20825520  0.83333333  0.29174480  1.0
  Ti  Ti561  1  0.54158853  0.16666667  0.29174480  1.0
  Ti  Ti562  1  0.54158853  0.50000000  0.29174480  1.0
  Ti  Ti563  1  0.54158853  0.83333333  0.29174480  1.0
  Ti  Ti564  1  0.87492187  0.16666667  0.29174480  1.0
  Ti  Ti565  1  0.87492187  0.50000000  0.29174480  1.0
  Ti  Ti566  1  0.87492187  0.83333333  0.29174480  1.0
  Ti  Ti567  1  0.27492187  0.00000000  0.39174480  1.0
  Ti  Ti568  1  0.27492187  0.33333333  0.39174480  1.0
  Ti  Ti569  1  0.27492187  0.66666667  0.39174480  1.0
  Ti  Ti570  1  0.60825520  0.00000000  0.39174480  1.0
  Ti  Ti571  1  0.60825520  0.33333333  0.39174480  1.0
  Ti  Ti572  1  0.60825520  0.66666667  0.39174480  1.0
  Ti  Ti573  1  0.94158853  0.00000000  0.39174480  1.0
  Ti  Ti574  1  0.94158853  0.33333333  0.39174480  1.0
  Ti  Ti575  1  0.94158853  0.66666667  0.39174480  1.0
