# generated using pymatgen
data_TiNi
_symmetry_space_group_name_H-M   'P 1'
_cell_length_a   19.64848266
_cell_length_b   27.40773347
_cell_length_c   28.52554714
_cell_angle_alpha   98.43820078
_cell_angle_beta   92.39749301
_cell_angle_gamma   97.50508071
_symmetry_Int_Tables_number   1
_chemical_formula_structural   TiNi
_chemical_formula_sum   'Ti216 Ni216'
_cell_volume   15035.95145087
_cell_formula_units_Z   216
loop_
 _symmetry_equiv_pos_site_id
 _symmetry_equiv_pos_as_xyz
  1  'x, y, z'
loop_
 _atom_site_type_symbol
 _atom_site_label
 _atom_site_symmetry_multiplicity
 _atom_site_fract_x
 _atom_site_fract_y
 _atom_site_fract_z
 _atom_site_occupancy
  Ni  Ni0  1  0.29383704  0.30331361  0.99431406  1.0
  Ni  Ni1  1  0.29383704  0.63664694  0.99431406  1.0
  Ni  Ni2  1  0.29383704  0.96998027  0.99431406  1.0
  Ni  Ni3  1  0.62717037  0.30331361  0.99431406  1.0
  Ni  Ni4  1  0.62717037  0.63664694  0.99431406  1.0
  Ni  Ni5  1  0.62717037  0.96998027  0.99431406  1.0
  Ni  Ni6  1  0.96050371  0.30331361  0.99431406  1.0
  Ni  Ni7  1  0.96050371  0.63664694  0.99431406  1.0
  Ni  Ni8  1  0.96050371  0.96998027  0.99431406  1.0
  Ni  Ni9  1  0.09383704  0.18664694  0.94431406  1.0
  Ni  Ni10  1  0.09383704  0.51998027  0.94431406  1.0
  Ni  Ni11  1  0.09383704  0.85331361  0.94431406  1.0
  Ni  Ni12  1  0.42717037  0.18664694  0.94431406  1.0
  Ni  Ni13  1  0.42717037  0.51998027  0.94431406  1.0
  Ni  Ni14  1  0.42717037  0.85331361  0.94431406  1.0
  Ni  Ni15  1  0.76050371  0.18664694  0.94431406  1.0
  Ni  Ni16  1  0.76050371  0.51998027  0.94431406  1.0
  Ni  Ni17  1  0.76050371  0.85331361  0.94431406  1.0
  Ni  Ni18  1  0.27265791  0.20762578  0.90568594  1.0
  Ni  Ni19  1  0.27265791  0.54095911  0.90568594  1.0
  Ni  Ni20  1  0.27265791  0.87429245  0.90568594  1.0
  Ni  Ni21  1  0.60599124  0.20762578  0.90568594  1.0
  Ni  Ni22  1  0.60599124  0.54095911  0.90568594  1.0
  Ni  Ni23  1  0.60599124  0.87429245  0.90568594  1.0
  Ni  Ni24  1  0.93932457  0.20762578  0.90568594  1.0
  Ni  Ni25  1  0.93932457  0.54095911  0.90568594  1.0
  Ni  Ni26  1  0.93932457  0.87429245  0.90568594  1.0
  Ni  Ni27  1  0.13932457  0.32429245  0.95568594  1.0
  Ni  Ni28  1  0.13932457  0.65762578  0.95568594  1.0
  Ni  Ni29  1  0.13932457  0.99095911  0.95568594  1.0
  Ni  Ni30  1  0.47265791  0.32429245  0.95568594  1.0
  Ni  Ni31  1  0.47265791  0.65762578  0.95568594  1.0
  Ni  Ni32  1  0.47265791  0.99095911  0.95568594  1.0
  Ni  Ni33  1  0.80599124  0.32429245  0.95568594  1.0
  Ni  Ni34  1  0.80599124  0.65762578  0.95568594  1.0
  Ni  Ni35  1  0.80599124  0.99095911  0.95568594  1.0
  Ni  Ni36  1  0.27265791  0.17984800  0.98901928  1.0
  Ni  Ni37  1  0.27265791  0.51318134  0.98901928  1.0
  Ni  Ni38  1  0.27265791  0.84651467  0.98901927  1.0
  Ni  Ni39  1  0.60599124  0.17984800  0.98901928  1.0
  Ni  Ni40  1  0.60599124  0.51318134  0.98901928  1.0
  Ni  Ni41  1  0.60599124  0.84651467  0.98901928  1.0
  Ni  Ni42  1  0.93932457  0.17984800  0.98901928  1.0
  Ni  Ni43  1  0.93932457  0.51318134  0.98901928  1.0
  Ni  Ni44  1  0.93932457  0.84651467  0.98901928  1.0
  Ni  Ni45  1  0.07265791  0.06318134  0.93901928  1.0
  Ni  Ni46  1  0.07265791  0.39651467  0.93901928  1.0
  Ni  Ni47  1  0.07265791  0.72984800  0.93901928  1.0
  Ni  Ni48  1  0.40599124  0.06318134  0.93901928  1.0
  Ni  Ni49  1  0.40599124  0.39651467  0.93901928  1.0
  Ni  Ni50  1  0.40599124  0.72984800  0.93901928  1.0
  Ni  Ni51  1  0.73932457  0.06318134  0.93901928  1.0
  Ni  Ni52  1  0.73932457  0.39651467  0.93901928  1.0
  Ni  Ni53  1  0.73932457  0.72984800  0.93901928  1.0
  Ni  Ni54  1  0.22717037  0.06998027  0.89431406  1.0
  Ni  Ni55  1  0.22717037  0.40331361  0.89431406  1.0
  Ni  Ni56  1  0.22717037  0.73664694  0.89431406  1.0
  Ni  Ni57  1  0.56050371  0.06998027  0.89431406  1.0
  Ni  Ni58  1  0.56050371  0.40331361  0.89431406  1.0
  Ni  Ni59  1  0.56050371  0.73664694  0.89431406  1.0
  Ni  Ni60  1  0.89383704  0.06998027  0.89431406  1.0
  Ni  Ni61  1  0.89383704  0.40331361  0.89431406  1.0
  Ni  Ni62  1  0.89383704  0.73664694  0.89431406  1.0
  Ni  Ni63  1  0.02717037  0.28664694  0.84431406  1.0
  Ni  Ni64  1  0.02717037  0.61998027  0.84431406  1.0
  Ni  Ni65  1  0.02717037  0.95331361  0.84431406  1.0
  Ni  Ni66  1  0.36050371  0.28664694  0.84431406  1.0
  Ni  Ni67  1  0.36050371  0.61998027  0.84431406  1.0
  Ni  Ni68  1  0.36050371  0.95331361  0.84431406  1.0
  Ni  Ni69  1  0.69383704  0.28664694  0.84431406  1.0
  Ni  Ni70  1  0.69383704  0.61998027  0.84431406  1.0
  Ni  Ni71  1  0.69383704  0.95331361  0.84431406  1.0
  Ni  Ni72  1  0.20599124  0.30762578  0.80568594  1.0
  Ni  Ni73  1  0.20599124  0.64095911  0.80568594  1.0
  Ni  Ni74  1  0.20599124  0.97429245  0.80568594  1.0
  Ni  Ni75  1  0.53932457  0.30762578  0.80568594  1.0
  Ni  Ni76  1  0.53932457  0.64095911  0.80568594  1.0
  Ni  Ni77  1  0.53932457  0.97429245  0.80568594  1.0
  Ni  Ni78  1  0.87265791  0.30762578  0.80568594  1.0
  Ni  Ni79  1  0.87265791  0.64095911  0.80568594  1.0
  Ni  Ni80  1  0.87265791  0.97429245  0.80568594  1.0
  Ni  Ni81  1  0.07265791  0.09095911  0.85568594  1.0
  Ni  Ni82  1  0.07265791  0.42429245  0.85568594  1.0
  Ni  Ni83  1  0.07265791  0.75762578  0.85568594  1.0
  Ni  Ni84  1  0.40599124  0.09095911  0.85568594  1.0
  Ni  Ni85  1  0.40599124  0.42429245  0.85568594  1.0
  Ni  Ni86  1  0.40599124  0.75762578  0.85568594  1.0
  Ni  Ni87  1  0.73932457  0.09095911  0.85568594  1.0
  Ni  Ni88  1  0.73932457  0.42429245  0.85568594  1.0
  Ni  Ni89  1  0.73932457  0.75762578  0.85568594  1.0
  Ni  Ni90  1  0.20599124  0.27984800  0.88901927  1.0
  Ni  Ni91  1  0.20599124  0.61318134  0.88901928  1.0
  Ni  Ni92  1  0.20599124  0.94651467  0.88901927  1.0
  Ni  Ni93  1  0.53932457  0.27984800  0.88901927  1.0
  Ni  Ni94  1  0.53932457  0.61318134  0.88901928  1.0
  Ni  Ni95  1  0.53932457  0.94651467  0.88901928  1.0
  Ni  Ni96  1  0.87265791  0.27984800  0.88901928  1.0
  Ni  Ni97  1  0.87265791  0.61318134  0.88901927  1.0
  Ni  Ni98  1  0.87265791  0.94651467  0.88901928  1.0
  Ni  Ni99  1  0.00599124  0.16318134  0.83901928  1.0
  Ni  Ni100  1  0.00599124  0.49651467  0.83901928  1.0
  Ni  Ni101  1  0.00599124  0.82984800  0.83901928  1.0
  Ni  Ni102  1  0.33932457  0.16318134  0.83901928  1.0
  Ni  Ni103  1  0.33932457  0.49651467  0.83901928  1.0
  Ni  Ni104  1  0.33932457  0.82984800  0.83901928  1.0
  Ni  Ni105  1  0.67265791  0.16318134  0.83901928  1.0
  Ni  Ni106  1  0.67265791  0.49651467  0.83901928  1.0
  Ni  Ni107  1  0.67265791  0.82984800  0.83901928  1.0
  Ni  Ni108  1  0.16050371  0.16998028  0.79431406  1.0
  Ni  Ni109  1  0.16050371  0.50331361  0.79431406  1.0
  Ni  Ni110  1  0.16050371  0.83664694  0.79431406  1.0
  Ni  Ni111  1  0.49383704  0.16998028  0.79431406  1.0
  Ni  Ni112  1  0.49383704  0.50331361  0.79431406  1.0
  Ni  Ni113  1  0.49383704  0.83664694  0.79431406  1.0
  Ni  Ni114  1  0.82717037  0.16998028  0.79431406  1.0
  Ni  Ni115  1  0.82717037  0.50331361  0.79431406  1.0
  Ni  Ni116  1  0.82717037  0.83664694  0.79431406  1.0
  Ni  Ni117  1  0.29383704  0.05331361  0.74431406  1.0
  Ni  Ni118  1  0.29383704  0.38664694  0.74431406  1.0
  Ni  Ni119  1  0.29383704  0.71998028  0.74431406  1.0
  Ni  Ni120  1  0.62717037  0.05331361  0.74431406  1.0
  Ni  Ni121  1  0.62717037  0.38664694  0.74431406  1.0
  Ni  Ni122  1  0.62717037  0.71998028  0.74431406  1.0
  Ni  Ni123  1  0.96050371  0.05331361  0.74431406  1.0
  Ni  Ni124  1  0.96050371  0.38664694  0.74431406  1.0
  Ni  Ni125  1  0.96050371  0.71998028  0.74431406  1.0
  Ni  Ni126  1  0.13932457  0.07429245  0.70568594  1.0
  Ni  Ni127  1  0.13932457  0.40762578  0.70568594  1.0
  Ni  Ni128  1  0.13932457  0.74095911  0.70568594  1.0
  Ni  Ni129  1  0.47265791  0.07429245  0.70568594  1.0
  Ni  Ni130  1  0.47265791  0.40762578  0.70568594  1.0
  Ni  Ni131  1  0.47265791  0.74095911  0.70568594  1.0
  Ni  Ni132  1  0.80599124  0.07429245  0.70568594  1.0
  Ni  Ni133  1  0.80599124  0.40762578  0.70568594  1.0
  Ni  Ni134  1  0.80599124  0.74095911  0.70568594  1.0
  Ni  Ni135  1  0.00599124  0.19095911  0.75568594  1.0
  Ni  Ni136  1  0.00599124  0.52429245  0.75568594  1.0
  Ni  Ni137  1  0.00599124  0.85762578  0.75568594  1.0
  Ni  Ni138  1  0.33932457  0.19095911  0.75568594  1.0
  Ni  Ni139  1  0.33932457  0.52429245  0.75568594  1.0
  Ni  Ni140  1  0.33932457  0.85762578  0.75568594  1.0
  Ni  Ni141  1  0.67265791  0.19095911  0.75568594  1.0
  Ni  Ni142  1  0.67265791  0.52429245  0.75568594  1.0
  Ni  Ni143  1  0.67265791  0.85762578  0.75568594  1.0
  Ni  Ni144  1  0.13932457  0.04651467  0.78901928  1.0
  Ni  Ni145  1  0.13932457  0.37984800  0.78901928  1.0
  Ni  Ni146  1  0.13932457  0.71318134  0.78901928  1.0
  Ni  Ni147  1  0.47265791  0.04651467  0.78901928  1.0
  Ni  Ni148  1  0.47265791  0.37984800  0.78901928  1.0
  Ni  Ni149  1  0.47265791  0.71318134  0.78901928  1.0
  Ni  Ni150  1  0.80599124  0.04651467  0.78901928  1.0
  Ni  Ni151  1  0.80599124  0.37984800  0.78901928  1.0
  Ni  Ni152  1  0.80599124  0.71318134  0.78901928  1.0
  Ni  Ni153  1  0.27265791  0.26318134  0.73901928  1.0
  Ni  Ni154  1  0.27265791  0.59651467  0.73901927  1.0
  Ni  Ni155  1  0.27265791  0.92984800  0.73901927  1.0
  Ni  Ni156  1  0.60599124  0.26318134  0.73901927  1.0
  Ni  Ni157  1  0.60599124  0.59651467  0.73901928  1.0
  Ni  Ni158  1  0.60599124  0.92984800  0.73901927  1.0
  Ni  Ni159  1  0.93932457  0.26318134  0.73901928  1.0
  Ni  Ni160  1  0.93932457  0.59651467  0.73901928  1.0
  Ni  Ni161  1  0.93932457  0.92984800  0.73901927  1.0
  Ni  Ni162  1  0.09383704  0.26998027  0.69431406  1.0
  Ni  Ni163  1  0.09383704  0.60331361  0.69431406  1.0
  Ni  Ni164  1  0.09383704  0.93664694  0.69431406  1.0
  Ni  Ni165  1  0.42717037  0.26998027  0.69431406  1.0
  Ni  Ni166  1  0.42717037  0.60331361  0.69431406  1.0
  Ni  Ni167  1  0.42717037  0.93664694  0.69431406  1.0
  Ni  Ni168  1  0.76050371  0.26998027  0.69431406  1.0
  Ni  Ni169  1  0.76050371  0.60331361  0.69431406  1.0
  Ni  Ni170  1  0.76050371  0.93664694  0.69431406  1.0
  Ni  Ni171  1  0.22717037  0.15331361  0.64431406  1.0
  Ni  Ni172  1  0.22717037  0.48664694  0.64431406  1.0
  Ni  Ni173  1  0.22717037  0.81998028  0.64431406  1.0
  Ni  Ni174  1  0.56050371  0.15331361  0.64431406  1.0
  Ni  Ni175  1  0.56050371  0.48664694  0.64431406  1.0
  Ni  Ni176  1  0.56050371  0.81998028  0.64431406  1.0
  Ni  Ni177  1  0.89383704  0.15331361  0.64431406  1.0
  Ni  Ni178  1  0.89383704  0.48664694  0.64431406  1.0
  Ni  Ni179  1  0.89383704  0.81998028  0.64431406  1.0
  Ni  Ni180  1  0.07265791  0.17429245  0.60568594  1.0
  Ni  Ni181  1  0.07265791  0.50762578  0.60568594  1.0
  Ni  Ni182  1  0.07265791  0.84095911  0.60568594  1.0
  Ni  Ni183  1  0.40599124  0.17429245  0.60568594  1.0
  Ni  Ni184  1  0.40599124  0.50762578  0.60568594  1.0
  Ni  Ni185  1  0.40599124  0.84095911  0.60568594  1.0
  Ni  Ni186  1  0.73932457  0.17429245  0.60568594  1.0
  Ni  Ni187  1  0.73932457  0.50762578  0.60568594  1.0
  Ni  Ni188  1  0.73932457  0.84095911  0.60568594  1.0
  Ni  Ni189  1  0.27265791  0.29095911  0.65568594  1.0
  Ni  Ni190  1  0.27265791  0.62429245  0.65568594  1.0
  Ni  Ni191  1  0.27265791  0.95762578  0.65568594  1.0
  Ni  Ni192  1  0.60599124  0.29095911  0.65568594  1.0
  Ni  Ni193  1  0.60599124  0.62429245  0.65568594  1.0
  Ni  Ni194  1  0.60599124  0.95762578  0.65568594  1.0
  Ni  Ni195  1  0.93932457  0.29095911  0.65568594  1.0
  Ni  Ni196  1  0.93932457  0.62429245  0.65568594  1.0
  Ni  Ni197  1  0.93932457  0.95762578  0.65568594  1.0
  Ni  Ni198  1  0.07265791  0.14651467  0.68901928  1.0
  Ni  Ni199  1  0.07265791  0.47984800  0.68901928  1.0
  Ni  Ni200  1  0.07265791  0.81318134  0.68901928  1.0
  Ni  Ni201  1  0.40599124  0.14651467  0.68901928  1.0
  Ni  Ni202  1  0.40599124  0.47984800  0.68901928  1.0
  Ni  Ni203  1  0.40599124  0.81318134  0.68901928  1.0
  Ni  Ni204  1  0.73932457  0.14651467  0.68901928  1.0
  Ni  Ni205  1  0.73932457  0.47984800  0.68901928  1.0
  Ni  Ni206  1  0.73932457  0.81318134  0.68901928  1.0
  Ni  Ni207  1  0.20599124  0.02984800  0.63901928  1.0
  Ni  Ni208  1  0.20599124  0.36318134  0.63901927  1.0
  Ni  Ni209  1  0.20599124  0.69651467  0.63901928  1.0
  Ni  Ni210  1  0.53932457  0.02984800  0.63901928  1.0
  Ni  Ni211  1  0.53932457  0.36318134  0.63901927  1.0
  Ni  Ni212  1  0.53932457  0.69651467  0.63901928  1.0
  Ni  Ni213  1  0.87265791  0.02984800  0.63901928  1.0
  Ni  Ni214  1  0.87265791  0.36318134  0.63901928  1.0
  Ni  Ni215  1  0.87265791  0.69651467  0.63901928  1.0
  Ti  Ti216  1  0.19181444  0.24380043  0.96880841  1.0
  Ti  Ti217  1  0.19181444  0.57713376  0.96880841  1.0
  Ti  Ti218  1  0.19181444  0.91046709  0.96880841  1.0
  Ti  Ti219  1  0.52514777  0.24380043  0.96880841  1.0
  Ti  Ti220  1  0.52514777  0.57713376  0.96880841  1.0
  Ti  Ti221  1  0.52514777  0.91046709  0.96880841  1.0
  Ti  Ti222  1  0.85848111  0.24380043  0.96880841  1.0
  Ti  Ti223  1  0.85848111  0.57713376  0.96880841  1.0
  Ti  Ti224  1  0.85848111  0.91046709  0.96880841  1.0
  Ti  Ti225  1  0.32514777  0.12713376  0.91880841  1.0
  Ti  Ti226  1  0.32514777  0.46046709  0.91880841  1.0
  Ti  Ti227  1  0.32514777  0.79380043  0.91880841  1.0
  Ti  Ti228  1  0.65848111  0.12713376  0.91880841  1.0
  Ti  Ti229  1  0.65848111  0.46046709  0.91880841  1.0
  Ti  Ti230  1  0.65848111  0.79380043  0.91880841  1.0
  Ti  Ti231  1  0.99181444  0.12713376  0.91880841  1.0
  Ti  Ti232  1  0.99181444  0.46046709  0.91880841  1.0
  Ti  Ti233  1  0.99181444  0.79380043  0.91880841  1.0
  Ti  Ti234  1  0.30723464  0.00557332  0.91433012  1.0
  Ti  Ti235  1  0.30723464  0.33890665  0.91433012  1.0
  Ti  Ti236  1  0.30723464  0.67223999  0.91433012  1.0
  Ti  Ti237  1  0.64056797  0.00557332  0.91433012  1.0
  Ti  Ti238  1  0.64056797  0.33890665  0.91433012  1.0
  Ti  Ti239  1  0.64056797  0.67223999  0.91433013  1.0
  Ti  Ti240  1  0.97390131  0.00557332  0.91433013  1.0
  Ti  Ti241  1  0.97390131  0.33890665  0.91433012  1.0
  Ti  Ti242  1  0.97390131  0.67223999  0.91433013  1.0
  Ti  Ti243  1  0.17390131  0.12223999  0.96433013  1.0
  Ti  Ti244  1  0.17390131  0.45557332  0.96433013  1.0
  Ti  Ti245  1  0.17390131  0.78890665  0.96433013  1.0
  Ti  Ti246  1  0.50723464  0.12223999  0.96433013  1.0
  Ti  Ti247  1  0.50723464  0.45557332  0.96433013  1.0
  Ti  Ti248  1  0.50723464  0.78890665  0.96433013  1.0
  Ti  Ti249  1  0.84056797  0.12223999  0.96433013  1.0
  Ti  Ti250  1  0.84056797  0.45557332  0.96433013  1.0
  Ti  Ti251  1  0.84056797  0.78890665  0.96433013  1.0
  Ti  Ti252  1  0.04056797  0.26668443  0.93099679  1.0
  Ti  Ti253  1  0.04056797  0.60001776  0.93099679  1.0
  Ti  Ti254  1  0.04056797  0.93335110  0.93099679  1.0
  Ti  Ti255  1  0.37390131  0.26668443  0.93099679  1.0
  Ti  Ti256  1  0.37390131  0.60001776  0.93099679  1.0
  Ti  Ti257  1  0.37390131  0.93335110  0.93099679  1.0
  Ti  Ti258  1  0.70723464  0.26668443  0.93099679  1.0
  Ti  Ti259  1  0.70723464  0.60001776  0.93099679  1.0
  Ti  Ti260  1  0.70723464  0.93335110  0.93099679  1.0
  Ti  Ti261  1  0.24056797  0.05001776  0.98099679  1.0
  Ti  Ti262  1  0.24056797  0.38335110  0.98099679  1.0
  Ti  Ti263  1  0.24056797  0.71668443  0.98099679  1.0
  Ti  Ti264  1  0.57390131  0.05001776  0.98099679  1.0
  Ti  Ti265  1  0.57390131  0.38335110  0.98099679  1.0
  Ti  Ti266  1  0.57390131  0.71668443  0.98099679  1.0
  Ti  Ti267  1  0.90723464  0.05001776  0.98099679  1.0
  Ti  Ti268  1  0.90723464  0.38335110  0.98099679  1.0
  Ti  Ti269  1  0.90723464  0.71668443  0.98099679  1.0
  Ti  Ti270  1  0.12514777  0.01046709  0.86880841  1.0
  Ti  Ti271  1  0.12514777  0.34380043  0.86880841  1.0
  Ti  Ti272  1  0.12514777  0.67713376  0.86880841  1.0
  Ti  Ti273  1  0.45848111  0.01046709  0.86880841  1.0
  Ti  Ti274  1  0.45848111  0.34380043  0.86880841  1.0
  Ti  Ti275  1  0.45848111  0.67713376  0.86880841  1.0
  Ti  Ti276  1  0.79181444  0.01046709  0.86880841  1.0
  Ti  Ti277  1  0.79181444  0.34380043  0.86880841  1.0
  Ti  Ti278  1  0.79181444  0.67713376  0.86880841  1.0
  Ti  Ti279  1  0.25848111  0.22713376  0.81880841  1.0
  Ti  Ti280  1  0.25848111  0.56046709  0.81880841  1.0
  Ti  Ti281  1  0.25848111  0.89380043  0.81880841  1.0
  Ti  Ti282  1  0.59181444  0.22713376  0.81880841  1.0
  Ti  Ti283  1  0.59181444  0.56046709  0.81880841  1.0
  Ti  Ti284  1  0.59181444  0.89380043  0.81880841  1.0
  Ti  Ti285  1  0.92514777  0.22713376  0.81880841  1.0
  Ti  Ti286  1  0.92514777  0.56046709  0.81880841  1.0
  Ti  Ti287  1  0.92514777  0.89380043  0.81880841  1.0
  Ti  Ti288  1  0.24056797  0.10557332  0.81433013  1.0
  Ti  Ti289  1  0.24056797  0.43890665  0.81433013  1.0
  Ti  Ti290  1  0.24056797  0.77223999  0.81433013  1.0
  Ti  Ti291  1  0.57390131  0.10557332  0.81433013  1.0
  Ti  Ti292  1  0.57390131  0.43890665  0.81433013  1.0
  Ti  Ti293  1  0.57390131  0.77223999  0.81433013  1.0
  Ti  Ti294  1  0.90723464  0.10557332  0.81433013  1.0
  Ti  Ti295  1  0.90723464  0.43890665  0.81433013  1.0
  Ti  Ti296  1  0.90723464  0.77223999  0.81433013  1.0
  Ti  Ti297  1  0.10723464  0.22223999  0.86433013  1.0
  Ti  Ti298  1  0.10723464  0.55557332  0.86433013  1.0
  Ti  Ti299  1  0.10723464  0.88890665  0.86433013  1.0
  Ti  Ti300  1  0.44056797  0.22223999  0.86433013  1.0
  Ti  Ti301  1  0.44056797  0.55557332  0.86433013  1.0
  Ti  Ti302  1  0.44056797  0.88890665  0.86433013  1.0
  Ti  Ti303  1  0.77390131  0.22223999  0.86433013  1.0
  Ti  Ti304  1  0.77390131  0.55557332  0.86433013  1.0
  Ti  Ti305  1  0.77390131  0.88890665  0.86433013  1.0
  Ti  Ti306  1  0.30723464  0.03335110  0.83099679  1.0
  Ti  Ti307  1  0.30723464  0.36668443  0.83099679  1.0
  Ti  Ti308  1  0.30723464  0.70001776  0.83099679  1.0
  Ti  Ti309  1  0.64056797  0.03335110  0.83099679  1.0
  Ti  Ti310  1  0.64056797  0.36668443  0.83099679  1.0
  Ti  Ti311  1  0.64056797  0.70001776  0.83099679  1.0
  Ti  Ti312  1  0.97390131  0.03335110  0.83099679  1.0
  Ti  Ti313  1  0.97390131  0.36668443  0.83099679  1.0
  Ti  Ti314  1  0.97390131  0.70001776  0.83099679  1.0
  Ti  Ti315  1  0.17390131  0.15001776  0.88099679  1.0
  Ti  Ti316  1  0.17390131  0.48335110  0.88099679  1.0
  Ti  Ti317  1  0.17390131  0.81668443  0.88099679  1.0
  Ti  Ti318  1  0.50723464  0.15001776  0.88099679  1.0
  Ti  Ti319  1  0.50723464  0.48335110  0.88099679  1.0
  Ti  Ti320  1  0.50723464  0.81668443  0.88099679  1.0
  Ti  Ti321  1  0.84056797  0.15001776  0.88099679  1.0
  Ti  Ti322  1  0.84056797  0.48335110  0.88099679  1.0
  Ti  Ti323  1  0.84056797  0.81668443  0.88099679  1.0
  Ti  Ti324  1  0.05848111  0.11046709  0.76880841  1.0
  Ti  Ti325  1  0.05848111  0.44380043  0.76880841  1.0
  Ti  Ti326  1  0.05848111  0.77713376  0.76880841  1.0
  Ti  Ti327  1  0.39181444  0.11046709  0.76880841  1.0
  Ti  Ti328  1  0.39181444  0.44380043  0.76880841  1.0
  Ti  Ti329  1  0.39181444  0.77713376  0.76880841  1.0
  Ti  Ti330  1  0.72514777  0.11046709  0.76880841  1.0
  Ti  Ti331  1  0.72514777  0.44380043  0.76880841  1.0
  Ti  Ti332  1  0.72514777  0.77713376  0.76880841  1.0
  Ti  Ti333  1  0.19181444  0.32713376  0.71880841  1.0
  Ti  Ti334  1  0.19181444  0.66046709  0.71880841  1.0
  Ti  Ti335  1  0.19181444  0.99380043  0.71880841  1.0
  Ti  Ti336  1  0.52514777  0.32713376  0.71880841  1.0
  Ti  Ti337  1  0.52514777  0.66046709  0.71880841  1.0
  Ti  Ti338  1  0.52514777  0.99380043  0.71880841  1.0
  Ti  Ti339  1  0.85848111  0.32713376  0.71880841  1.0
  Ti  Ti340  1  0.85848111  0.66046709  0.71880841  1.0
  Ti  Ti341  1  0.85848111  0.99380043  0.71880841  1.0
  Ti  Ti342  1  0.17390131  0.20557332  0.71433013  1.0
  Ti  Ti343  1  0.17390131  0.53890665  0.71433013  1.0
  Ti  Ti344  1  0.17390131  0.87223999  0.71433013  1.0
  Ti  Ti345  1  0.50723464  0.20557332  0.71433013  1.0
  Ti  Ti346  1  0.50723464  0.53890665  0.71433013  1.0
  Ti  Ti347  1  0.50723464  0.87223999  0.71433013  1.0
  Ti  Ti348  1  0.84056797  0.20557332  0.71433013  1.0
  Ti  Ti349  1  0.84056797  0.53890665  0.71433013  1.0
  Ti  Ti350  1  0.84056797  0.87223999  0.71433013  1.0
  Ti  Ti351  1  0.04056797  0.32223999  0.76433012  1.0
  Ti  Ti352  1  0.04056797  0.65557332  0.76433012  1.0
  Ti  Ti353  1  0.04056797  0.98890665  0.76433012  1.0
  Ti  Ti354  1  0.37390131  0.32223999  0.76433012  1.0
  Ti  Ti355  1  0.37390131  0.65557332  0.76433012  1.0
  Ti  Ti356  1  0.37390131  0.98890665  0.76433012  1.0
  Ti  Ti357  1  0.70723464  0.32223999  0.76433012  1.0
  Ti  Ti358  1  0.70723464  0.65557332  0.76433012  1.0
  Ti  Ti359  1  0.70723464  0.98890665  0.76433012  1.0
  Ti  Ti360  1  0.24056797  0.13335110  0.73099679  1.0
  Ti  Ti361  1  0.24056797  0.46668443  0.73099679  1.0
  Ti  Ti362  1  0.24056797  0.80001776  0.73099679  1.0
  Ti  Ti363  1  0.57390131  0.13335110  0.73099679  1.0
  Ti  Ti364  1  0.57390131  0.46668443  0.73099679  1.0
  Ti  Ti365  1  0.57390131  0.80001776  0.73099679  1.0
  Ti  Ti366  1  0.90723464  0.13335110  0.73099679  1.0
  Ti  Ti367  1  0.90723464  0.46668443  0.73099679  1.0
  Ti  Ti368  1  0.90723464  0.80001776  0.73099679  1.0
  Ti  Ti369  1  0.10723464  0.25001776  0.78099679  1.0
  Ti  Ti370  1  0.10723464  0.58335110  0.78099679  1.0
  Ti  Ti371  1  0.10723464  0.91668443  0.78099679  1.0
  Ti  Ti372  1  0.44056797  0.25001776  0.78099679  1.0
  Ti  Ti373  1  0.44056797  0.58335110  0.78099679  1.0
  Ti  Ti374  1  0.44056797  0.91668443  0.78099679  1.0
  Ti  Ti375  1  0.77390131  0.25001776  0.78099679  1.0
  Ti  Ti376  1  0.77390131  0.58335110  0.78099679  1.0
  Ti  Ti377  1  0.77390131  0.91668443  0.78099679  1.0
  Ti  Ti378  1  0.32514777  0.21046709  0.66880841  1.0
  Ti  Ti379  1  0.32514777  0.54380043  0.66880841  1.0
  Ti  Ti380  1  0.32514777  0.87713376  0.66880841  1.0
  Ti  Ti381  1  0.65848111  0.21046709  0.66880841  1.0
  Ti  Ti382  1  0.65848111  0.54380043  0.66880841  1.0
  Ti  Ti383  1  0.65848111  0.87713376  0.66880841  1.0
  Ti  Ti384  1  0.99181444  0.21046709  0.66880841  1.0
  Ti  Ti385  1  0.99181444  0.54380043  0.66880841  1.0
  Ti  Ti386  1  0.99181444  0.87713376  0.66880841  1.0
  Ti  Ti387  1  0.12514777  0.09380043  0.61880841  1.0
  Ti  Ti388  1  0.12514777  0.42713376  0.61880841  1.0
  Ti  Ti389  1  0.12514777  0.76046709  0.61880841  1.0
  Ti  Ti390  1  0.45848111  0.09380043  0.61880841  1.0
  Ti  Ti391  1  0.45848111  0.42713376  0.61880841  1.0
  Ti  Ti392  1  0.45848111  0.76046709  0.61880841  1.0
  Ti  Ti393  1  0.79181444  0.09380043  0.61880841  1.0
  Ti  Ti394  1  0.79181444  0.42713376  0.61880841  1.0
  Ti  Ti395  1  0.79181444  0.76046709  0.61880841  1.0
  Ti  Ti396  1  0.10723464  0.30557332  0.61433013  1.0
  Ti  Ti397  1  0.10723464  0.63890665  0.61433013  1.0
  Ti  Ti398  1  0.10723464  0.97223999  0.61433013  1.0
  Ti  Ti399  1  0.44056797  0.30557332  0.61433013  1.0
  Ti  Ti400  1  0.44056797  0.63890665  0.61433013  1.0
  Ti  Ti401  1  0.44056797  0.97223999  0.61433013  1.0
  Ti  Ti402  1  0.77390131  0.30557332  0.61433013  1.0
  Ti  Ti403  1  0.77390131  0.63890665  0.61433013  1.0
  Ti  Ti404  1  0.77390131  0.97223999  0.61433013  1.0
  Ti  Ti405  1  0.30723464  0.08890665  0.66433012  1.0
  Ti  Ti406  1  0.30723464  0.42223999  0.66433013  1.0
  Ti  Ti407  1  0.30723464  0.75557332  0.66433013  1.0
  Ti  Ti408  1  0.64056797  0.08890665  0.66433012  1.0
  Ti  Ti409  1  0.64056797  0.42223999  0.66433013  1.0
  Ti  Ti410  1  0.64056797  0.75557332  0.66433013  1.0
  Ti  Ti411  1  0.97390131  0.08890665  0.66433013  1.0
  Ti  Ti412  1  0.97390131  0.42223999  0.66433013  1.0
  Ti  Ti413  1  0.97390131  0.75557332  0.66433013  1.0
  Ti  Ti414  1  0.17390131  0.23335110  0.63099679  1.0
  Ti  Ti415  1  0.17390131  0.56668443  0.63099679  1.0
  Ti  Ti416  1  0.17390131  0.90001776  0.63099679  1.0
  Ti  Ti417  1  0.50723464  0.23335110  0.63099679  1.0
  Ti  Ti418  1  0.50723464  0.56668443  0.63099679  1.0
  Ti  Ti419  1  0.50723464  0.90001776  0.63099679  1.0
  Ti  Ti420  1  0.84056797  0.23335110  0.63099679  1.0
  Ti  Ti421  1  0.84056797  0.56668443  0.63099679  1.0
  Ti  Ti422  1  0.84056797  0.90001776  0.63099679  1.0
  Ti  Ti423  1  0.04056797  0.01668443  0.68099679  1.0
  Ti  Ti424  1  0.04056797  0.35001776  0.68099679  1.0
  Ti  Ti425  1  0.04056797  0.68335110  0.68099679  1.0
  Ti  Ti426  1  0.37390131  0.01668443  0.68099679  1.0
  Ti  Ti427  1  0.37390131  0.35001776  0.68099679  1.0
  Ti  Ti428  1  0.37390131  0.68335110  0.68099679  1.0
  Ti  Ti429  1  0.70723464  0.01668443  0.68099679  1.0
  Ti  Ti430  1  0.70723464  0.35001776  0.68099679  1.0
  Ti  Ti431  1  0.70723464  0.68335110  0.68099679  1.0
