# generated using pymatgen
data_TiNi
_symmetry_space_group_name_H-M   'P 1'
_cell_length_a   8.21954700
_cell_length_b   47.58912654
_cell_length_c   32.83281750
_cell_angle_alpha   126.24783926
_cell_angle_beta   94.96047383
_cell_angle_gamma   87.14559615
_symmetry_Int_Tables_number   1
_chemical_formula_structural   TiNi
_chemical_formula_sum   'Ti162 Ni162'
_cell_volume   10318.58291403
_cell_formula_units_Z   162
loop_
 _symmetry_equiv_pos_site_id
 _symmetry_equiv_pos_as_xyz
  1  'x, y, z'
loop_
 _atom_site_type_symbol
 _atom_site_label
 _atom_site_symmetry_multiplicity
 _atom_site_fract_x
 _atom_site_fract_y
 _atom_site_fract_z
 _atom_site_occupancy
  Ti  Ti0  1  0.14071200  0.30586133  0.13238279  1.0
  Ti  Ti1  1  0.14071200  0.63919467  0.13238279  1.0
  Ti  Ti2  1  0.14071200  0.97252800  0.13238279  1.0
  Ti  Ti3  1  0.47404533  0.30586133  0.13238279  1.0
  Ti  Ti4  1  0.47404533  0.63919467  0.13238279  1.0
  Ti  Ti5  1  0.47404533  0.97252800  0.13238279  1.0
  Ti  Ti6  1  0.80737867  0.30586133  0.13238279  1.0
  Ti  Ti7  1  0.80737867  0.63919467  0.13238279  1.0
  Ti  Ti8  1  0.80737867  0.97252800  0.13238279  1.0
  Ti  Ti9  1  0.19262133  0.02747200  0.12155507  1.0
  Ti  Ti10  1  0.19262133  0.36080533  0.12155507  1.0
  Ti  Ti11  1  0.19262133  0.69413867  0.12155507  1.0
  Ti  Ti12  1  0.52595467  0.02747200  0.12155507  1.0
  Ti  Ti13  1  0.52595467  0.36080533  0.12155507  1.0
  Ti  Ti14  1  0.52595467  0.69413867  0.12155507  1.0
  Ti  Ti15  1  0.85928800  0.02747200  0.12155507  1.0
  Ti  Ti16  1  0.85928800  0.36080533  0.12155507  1.0
  Ti  Ti17  1  0.85928800  0.69413867  0.12155507  1.0
  Ti  Ti18  1  0.17366000  0.24960533  0.02316921  1.0
  Ti  Ti19  1  0.17366000  0.58293867  0.02316921  1.0
  Ti  Ti20  1  0.17366000  0.91627200  0.02316921  1.0
  Ti  Ti21  1  0.50699333  0.24960533  0.02316921  1.0
  Ti  Ti22  1  0.50699333  0.58293867  0.02316921  1.0
  Ti  Ti23  1  0.50699333  0.91627200  0.02316921  1.0
  Ti  Ti24  1  0.84032667  0.24960533  0.02316921  1.0
  Ti  Ti25  1  0.84032667  0.58293867  0.02316921  1.0
  Ti  Ti26  1  0.84032667  0.91627200  0.02316921  1.0
  Ti  Ti27  1  0.19791433  0.13830333  0.07481521  1.0
  Ti  Ti28  1  0.19791433  0.47163667  0.07481521  1.0
  Ti  Ti29  1  0.19791433  0.80497000  0.07481521  1.0
  Ti  Ti30  1  0.53124767  0.13830333  0.07481521  1.0
  Ti  Ti31  1  0.53124767  0.47163667  0.07481521  1.0
  Ti  Ti32  1  0.53124767  0.80497000  0.07481521  1.0
  Ti  Ti33  1  0.86458100  0.13830333  0.07481521  1.0
  Ti  Ti34  1  0.86458100  0.47163667  0.07481521  1.0
  Ti  Ti35  1  0.86458100  0.80497000  0.07481521  1.0
  Ti  Ti36  1  0.13541900  0.19503000  0.03626550  1.0
  Ti  Ti37  1  0.13541900  0.52836333  0.03626550  1.0
  Ti  Ti38  1  0.13541900  0.86169667  0.03626550  1.0
  Ti  Ti39  1  0.46875233  0.19503000  0.03626550  1.0
  Ti  Ti40  1  0.46875233  0.52836333  0.03626550  1.0
  Ti  Ti41  1  0.46875233  0.86169667  0.03626550  1.0
  Ti  Ti42  1  0.80208567  0.19503000  0.03626550  1.0
  Ti  Ti43  1  0.80208567  0.52836333  0.03626550  1.0
  Ti  Ti44  1  0.80208567  0.86169667  0.03626550  1.0
  Ti  Ti45  1  0.15967333  0.08372800  0.08791150  1.0
  Ti  Ti46  1  0.15967333  0.41706133  0.08791150  1.0
  Ti  Ti47  1  0.15967333  0.75039467  0.08791150  1.0
  Ti  Ti48  1  0.49300667  0.08372800  0.08791150  1.0
  Ti  Ti49  1  0.49300667  0.41706133  0.08791150  1.0
  Ti  Ti50  1  0.49300667  0.75039467  0.08791150  1.0
  Ti  Ti51  1  0.82634000  0.08372800  0.08791150  1.0
  Ti  Ti52  1  0.82634000  0.41706133  0.08791150  1.0
  Ti  Ti53  1  0.82634000  0.75039467  0.08791150  1.0
  Ni  Ni54  1  0.00240700  0.02827567  0.05508550  1.0
  Ni  Ni55  1  0.00240700  0.36160900  0.05508550  1.0
  Ni  Ni56  1  0.00240700  0.69494233  0.05508550  1.0
  Ni  Ni57  1  0.33574033  0.02827567  0.05508550  1.0
  Ni  Ni58  1  0.33574033  0.36160900  0.05508550  1.0
  Ni  Ni59  1  0.33574033  0.69494233  0.05508550  1.0
  Ni  Ni60  1  0.66907367  0.02827567  0.05508550  1.0
  Ni  Ni61  1  0.66907367  0.36160900  0.05508550  1.0
  Ni  Ni62  1  0.66907367  0.69494233  0.05508550  1.0
  Ni  Ni63  1  0.00385800  0.13923267  0.00830221  1.0
  Ni  Ni64  1  0.00385800  0.47256600  0.00830221  1.0
  Ni  Ni65  1  0.00385800  0.80589933  0.00830221  1.0
  Ni  Ni66  1  0.33719133  0.13923267  0.00830221  1.0
  Ni  Ni67  1  0.33719133  0.47256600  0.00830221  1.0
  Ni  Ni68  1  0.33719133  0.80589933  0.00830221  1.0
  Ni  Ni69  1  0.67052467  0.13923267  0.00830221  1.0
  Ni  Ni70  1  0.67052467  0.47256600  0.00830221  1.0
  Ni  Ni71  1  0.67052467  0.80589933  0.00830221  1.0
  Ni  Ni72  1  0.31541000  0.25080033  0.10060636  1.0
  Ni  Ni73  1  0.31541000  0.58413367  0.10060636  1.0
  Ni  Ni74  1  0.31541000  0.91746700  0.10060636  1.0
  Ni  Ni75  1  0.64874333  0.25080033  0.10060636  1.0
  Ni  Ni76  1  0.64874333  0.58413367  0.10060636  1.0
  Ni  Ni77  1  0.64874333  0.91746700  0.10060636  1.0
  Ni  Ni78  1  0.98207667  0.25080033  0.10060636  1.0
  Ni  Ni79  1  0.98207667  0.58413367  0.10060636  1.0
  Ni  Ni80  1  0.98207667  0.91746700  0.10060636  1.0
  Ni  Ni81  1  0.33092633  0.30505767  0.05599521  1.0
  Ni  Ni82  1  0.33092633  0.63839100  0.05599521  1.0
  Ni  Ni83  1  0.33092633  0.97172433  0.05599521  1.0
  Ni  Ni84  1  0.66425967  0.30505767  0.05599521  1.0
  Ni  Ni85  1  0.66425967  0.63839100  0.05599521  1.0
  Ni  Ni86  1  0.66425967  0.97172433  0.05599521  1.0
  Ni  Ni87  1  0.99759300  0.30505767  0.05599521  1.0
  Ni  Ni88  1  0.99759300  0.63839100  0.05599521  1.0
  Ni  Ni89  1  0.99759300  0.97172433  0.05599521  1.0
  Ni  Ni90  1  0.32947533  0.19410067  0.10277850  1.0
  Ni  Ni91  1  0.32947533  0.52743400  0.10277850  1.0
  Ni  Ni92  1  0.32947533  0.86076733  0.10277850  1.0
  Ni  Ni93  1  0.66280867  0.19410067  0.10277850  1.0
  Ni  Ni94  1  0.66280867  0.52743400  0.10277850  1.0
  Ni  Ni95  1  0.66280867  0.86076733  0.10277850  1.0
  Ni  Ni96  1  0.99614200  0.19410067  0.10277850  1.0
  Ni  Ni97  1  0.99614200  0.52743400  0.10277850  1.0
  Ni  Ni98  1  0.99614200  0.86076733  0.10277850  1.0
  Ni  Ni99  1  0.01792333  0.08253300  0.01047436  1.0
  Ni  Ni100  1  0.01792333  0.41586633  0.01047436  1.0
  Ni  Ni101  1  0.01792333  0.74919967  0.01047436  1.0
  Ni  Ni102  1  0.35125667  0.08253300  0.01047436  1.0
  Ni  Ni103  1  0.35125667  0.41586633  0.01047436  1.0
  Ni  Ni104  1  0.35125667  0.74919967  0.01047436  1.0
  Ni  Ni105  1  0.68459000  0.08253300  0.01047436  1.0
  Ni  Ni106  1  0.68459000  0.41586633  0.01047436  1.0
  Ni  Ni107  1  0.68459000  0.74919967  0.01047436  1.0
  Ti  Ti108  1  0.14071200  0.30586133  0.27523993  1.0
  Ti  Ti109  1  0.14071200  0.63919467  0.27523993  1.0
  Ti  Ti110  1  0.14071200  0.97252800  0.27523993  1.0
  Ti  Ti111  1  0.47404533  0.30586133  0.27523993  1.0
  Ti  Ti112  1  0.47404533  0.63919467  0.27523993  1.0
  Ti  Ti113  1  0.47404533  0.97252800  0.27523993  1.0
  Ti  Ti114  1  0.80737867  0.30586133  0.27523993  1.0
  Ti  Ti115  1  0.80737867  0.63919467  0.27523993  1.0
  Ti  Ti116  1  0.80737867  0.97252800  0.27523993  1.0
  Ti  Ti117  1  0.19262133  0.02747200  0.26441221  1.0
  Ti  Ti118  1  0.19262133  0.36080533  0.26441221  1.0
  Ti  Ti119  1  0.19262133  0.69413867  0.26441221  1.0
  Ti  Ti120  1  0.52595467  0.02747200  0.26441221  1.0
  Ti  Ti121  1  0.52595467  0.36080533  0.26441221  1.0
  Ti  Ti122  1  0.52595467  0.69413867  0.26441221  1.0
  Ti  Ti123  1  0.85928800  0.02747200  0.26441221  1.0
  Ti  Ti124  1  0.85928800  0.36080533  0.26441221  1.0
  Ti  Ti125  1  0.85928800  0.69413867  0.26441221  1.0
  Ti  Ti126  1  0.17366000  0.24960533  0.16602636  1.0
  Ti  Ti127  1  0.17366000  0.58293867  0.16602636  1.0
  Ti  Ti128  1  0.17366000  0.91627200  0.16602636  1.0
  Ti  Ti129  1  0.50699333  0.24960533  0.16602636  1.0
  Ti  Ti130  1  0.50699333  0.58293867  0.16602636  1.0
  Ti  Ti131  1  0.50699333  0.91627200  0.16602636  1.0
  Ti  Ti132  1  0.84032667  0.24960533  0.16602636  1.0
  Ti  Ti133  1  0.84032667  0.58293867  0.16602636  1.0
  Ti  Ti134  1  0.84032667  0.91627200  0.16602636  1.0
  Ti  Ti135  1  0.19791433  0.13830333  0.21767236  1.0
  Ti  Ti136  1  0.19791433  0.47163667  0.21767236  1.0
  Ti  Ti137  1  0.19791433  0.80497000  0.21767236  1.0
  Ti  Ti138  1  0.53124767  0.13830333  0.21767236  1.0
  Ti  Ti139  1  0.53124767  0.47163667  0.21767236  1.0
  Ti  Ti140  1  0.53124767  0.80497000  0.21767236  1.0
  Ti  Ti141  1  0.86458100  0.13830333  0.21767236  1.0
  Ti  Ti142  1  0.86458100  0.47163667  0.21767236  1.0
  Ti  Ti143  1  0.86458100  0.80497000  0.21767236  1.0
  Ti  Ti144  1  0.13541900  0.19503000  0.17912264  1.0
  Ti  Ti145  1  0.13541900  0.52836333  0.17912264  1.0
  Ti  Ti146  1  0.13541900  0.86169667  0.17912264  1.0
  Ti  Ti147  1  0.46875233  0.19503000  0.17912264  1.0
  Ti  Ti148  1  0.46875233  0.52836333  0.17912264  1.0
  Ti  Ti149  1  0.46875233  0.86169667  0.17912264  1.0
  Ti  Ti150  1  0.80208567  0.19503000  0.17912264  1.0
  Ti  Ti151  1  0.80208567  0.52836333  0.17912264  1.0
  Ti  Ti152  1  0.80208567  0.86169667  0.17912264  1.0
  Ti  Ti153  1  0.15967333  0.08372800  0.23076864  1.0
  Ti  Ti154  1  0.15967333  0.41706133  0.23076864  1.0
  Ti  Ti155  1  0.15967333  0.75039467  0.23076864  1.0
  Ti  Ti156  1  0.49300667  0.08372800  0.23076864  1.0
  Ti  Ti157  1  0.49300667  0.41706133  0.23076864  1.0
  Ti  Ti158  1  0.49300667  0.75039467  0.23076864  1.0
  Ti  Ti159  1  0.82634000  0.08372800  0.23076864  1.0
  Ti  Ti160  1  0.82634000  0.41706133  0.23076864  1.0
  Ti  Ti161  1  0.82634000  0.75039467  0.23076864  1.0
  Ni  Ni162  1  0.00240700  0.02827567  0.19794264  1.0
  Ni  Ni163  1  0.00240700  0.36160900  0.19794264  1.0
  Ni  Ni164  1  0.00240700  0.69494233  0.19794264  1.0
  Ni  Ni165  1  0.33574033  0.02827567  0.19794264  1.0
  Ni  Ni166  1  0.33574033  0.36160900  0.19794264  1.0
  Ni  Ni167  1  0.33574033  0.69494233  0.19794264  1.0
  Ni  Ni168  1  0.66907367  0.02827567  0.19794264  1.0
  Ni  Ni169  1  0.66907367  0.36160900  0.19794264  1.0
  Ni  Ni170  1  0.66907367  0.69494233  0.19794264  1.0
  Ni  Ni171  1  0.00385800  0.13923267  0.15115936  1.0
  Ni  Ni172  1  0.00385800  0.47256600  0.15115936  1.0
  Ni  Ni173  1  0.00385800  0.80589933  0.15115936  1.0
  Ni  Ni174  1  0.33719133  0.13923267  0.15115936  1.0
  Ni  Ni175  1  0.33719133  0.47256600  0.15115936  1.0
  Ni  Ni176  1  0.33719133  0.80589933  0.15115936  1.0
  Ni  Ni177  1  0.67052467  0.13923267  0.15115936  1.0
  Ni  Ni178  1  0.67052467  0.47256600  0.15115936  1.0
  Ni  Ni179  1  0.67052467  0.80589933  0.15115936  1.0
  Ni  Ni180  1  0.31541000  0.25080033  0.24346350  1.0
  Ni  Ni181  1  0.31541000  0.58413367  0.24346350  1.0
  Ni  Ni182  1  0.31541000  0.91746700  0.24346350  1.0
  Ni  Ni183  1  0.64874333  0.25080033  0.24346350  1.0
  Ni  Ni184  1  0.64874333  0.58413367  0.24346350  1.0
  Ni  Ni185  1  0.64874333  0.91746700  0.24346350  1.0
  Ni  Ni186  1  0.98207667  0.25080033  0.24346350  1.0
  Ni  Ni187  1  0.98207667  0.58413367  0.24346350  1.0
  Ni  Ni188  1  0.98207667  0.91746700  0.24346350  1.0
  Ni  Ni189  1  0.33092633  0.30505767  0.19885236  1.0
  Ni  Ni190  1  0.33092633  0.63839100  0.19885236  1.0
  Ni  Ni191  1  0.33092633  0.97172433  0.19885236  1.0
  Ni  Ni192  1  0.66425967  0.30505767  0.19885236  1.0
  Ni  Ni193  1  0.66425967  0.63839100  0.19885236  1.0
  Ni  Ni194  1  0.66425967  0.97172433  0.19885236  1.0
  Ni  Ni195  1  0.99759300  0.30505767  0.19885236  1.0
  Ni  Ni196  1  0.99759300  0.63839100  0.19885236  1.0
  Ni  Ni197  1  0.99759300  0.97172433  0.19885236  1.0
  Ni  Ni198  1  0.32947533  0.19410067  0.24563564  1.0
  Ni  Ni199  1  0.32947533  0.52743400  0.24563564  1.0
  Ni  Ni200  1  0.32947533  0.86076733  0.24563564  1.0
  Ni  Ni201  1  0.66280867  0.19410067  0.24563564  1.0
  Ni  Ni202  1  0.66280867  0.52743400  0.24563564  1.0
  Ni  Ni203  1  0.66280867  0.86076733  0.24563564  1.0
  Ni  Ni204  1  0.99614200  0.19410067  0.24563564  1.0
  Ni  Ni205  1  0.99614200  0.52743400  0.24563564  1.0
  Ni  Ni206  1  0.99614200  0.86076733  0.24563564  1.0
  Ni  Ni207  1  0.01792333  0.08253300  0.15333150  1.0
  Ni  Ni208  1  0.01792333  0.41586633  0.15333150  1.0
  Ni  Ni209  1  0.01792333  0.74919967  0.15333150  1.0
  Ni  Ni210  1  0.35125667  0.08253300  0.15333150  1.0
  Ni  Ni211  1  0.35125667  0.41586633  0.15333150  1.0
  Ni  Ni212  1  0.35125667  0.74919967  0.15333150  1.0
  Ni  Ni213  1  0.68459000  0.08253300  0.15333150  1.0
  Ni  Ni214  1  0.68459000  0.41586633  0.15333150  1.0
  Ni  Ni215  1  0.68459000  0.74919967  0.15333150  1.0
  Ti  Ti216  1  0.14071200  0.30586133  0.41809707  1.0
  Ti  Ti217  1  0.14071200  0.63919467  0.41809707  1.0
  Ti  Ti218  1  0.14071200  0.97252800  0.41809707  1.0
  Ti  Ti219  1  0.47404533  0.30586133  0.41809707  1.0
  Ti  Ti220  1  0.47404533  0.63919467  0.41809707  1.0
  Ti  Ti221  1  0.47404533  0.97252800  0.41809707  1.0
  Ti  Ti222  1  0.80737867  0.30586133  0.41809707  1.0
  Ti  Ti223  1  0.80737867  0.63919467  0.41809707  1.0
  Ti  Ti224  1  0.80737867  0.97252800  0.41809707  1.0
  Ti  Ti225  1  0.19262133  0.02747200  0.40726936  1.0
  Ti  Ti226  1  0.19262133  0.36080533  0.40726936  1.0
  Ti  Ti227  1  0.19262133  0.69413867  0.40726936  1.0
  Ti  Ti228  1  0.52595467  0.02747200  0.40726936  1.0
  Ti  Ti229  1  0.52595467  0.36080533  0.40726936  1.0
  Ti  Ti230  1  0.52595467  0.69413867  0.40726936  1.0
  Ti  Ti231  1  0.85928800  0.02747200  0.40726936  1.0
  Ti  Ti232  1  0.85928800  0.36080533  0.40726936  1.0
  Ti  Ti233  1  0.85928800  0.69413867  0.40726936  1.0
  Ti  Ti234  1  0.17366000  0.24960533  0.30888350  1.0
  Ti  Ti235  1  0.17366000  0.58293867  0.30888350  1.0
  Ti  Ti236  1  0.17366000  0.91627200  0.30888350  1.0
  Ti  Ti237  1  0.50699333  0.24960533  0.30888350  1.0
  Ti  Ti238  1  0.50699333  0.58293867  0.30888350  1.0
  Ti  Ti239  1  0.50699333  0.91627200  0.30888350  1.0
  Ti  Ti240  1  0.84032667  0.24960533  0.30888350  1.0
  Ti  Ti241  1  0.84032667  0.58293867  0.30888350  1.0
  Ti  Ti242  1  0.84032667  0.91627200  0.30888350  1.0
  Ti  Ti243  1  0.19791433  0.13830333  0.36052950  1.0
  Ti  Ti244  1  0.19791433  0.47163667  0.36052950  1.0
  Ti  Ti245  1  0.19791433  0.80497000  0.36052950  1.0
  Ti  Ti246  1  0.53124767  0.13830333  0.36052950  1.0
  Ti  Ti247  1  0.53124767  0.47163667  0.36052950  1.0
  Ti  Ti248  1  0.53124767  0.80497000  0.36052950  1.0
  Ti  Ti249  1  0.86458100  0.13830333  0.36052950  1.0
  Ti  Ti250  1  0.86458100  0.47163667  0.36052950  1.0
  Ti  Ti251  1  0.86458100  0.80497000  0.36052950  1.0
  Ti  Ti252  1  0.13541900  0.19503000  0.32197979  1.0
  Ti  Ti253  1  0.13541900  0.52836333  0.32197979  1.0
  Ti  Ti254  1  0.13541900  0.86169667  0.32197979  1.0
  Ti  Ti255  1  0.46875233  0.19503000  0.32197979  1.0
  Ti  Ti256  1  0.46875233  0.52836333  0.32197979  1.0
  Ti  Ti257  1  0.46875233  0.86169667  0.32197979  1.0
  Ti  Ti258  1  0.80208567  0.19503000  0.32197979  1.0
  Ti  Ti259  1  0.80208567  0.52836333  0.32197979  1.0
  Ti  Ti260  1  0.80208567  0.86169667  0.32197979  1.0
  Ti  Ti261  1  0.15967333  0.08372800  0.37362579  1.0
  Ti  Ti262  1  0.15967333  0.41706133  0.37362579  1.0
  Ti  Ti263  1  0.15967333  0.75039467  0.37362579  1.0
  Ti  Ti264  1  0.49300667  0.08372800  0.37362579  1.0
  Ti  Ti265  1  0.49300667  0.41706133  0.37362579  1.0
  Ti  Ti266  1  0.49300667  0.75039467  0.37362579  1.0
  Ti  Ti267  1  0.82634000  0.08372800  0.37362579  1.0
  Ti  Ti268  1  0.82634000  0.41706133  0.37362579  1.0
  Ti  Ti269  1  0.82634000  0.75039467  0.37362579  1.0
  Ni  Ni270  1  0.00240700  0.02827567  0.34079979  1.0
  Ni  Ni271  1  0.00240700  0.36160900  0.34079979  1.0
  Ni  Ni272  1  0.00240700  0.69494233  0.34079979  1.0
  Ni  Ni273  1  0.33574033  0.02827567  0.34079979  1.0
  Ni  Ni274  1  0.33574033  0.36160900  0.34079979  1.0
  Ni  Ni275  1  0.33574033  0.69494233  0.34079979  1.0
  Ni  Ni276  1  0.66907367  0.02827567  0.34079979  1.0
  Ni  Ni277  1  0.66907367  0.36160900  0.34079979  1.0
  Ni  Ni278  1  0.66907367  0.69494233  0.34079979  1.0
  Ni  Ni279  1  0.00385800  0.13923267  0.29401650  1.0
  Ni  Ni280  1  0.00385800  0.47256600  0.29401650  1.0
  Ni  Ni281  1  0.00385800  0.80589933  0.29401650  1.0
  Ni  Ni282  1  0.33719133  0.13923267  0.29401650  1.0
  Ni  Ni283  1  0.33719133  0.47256600  0.29401650  1.0
  Ni  Ni284  1  0.33719133  0.80589933  0.29401650  1.0
  Ni  Ni285  1  0.67052467  0.13923267  0.29401650  1.0
  Ni  Ni286  1  0.67052467  0.47256600  0.29401650  1.0
  Ni  Ni287  1  0.67052467  0.80589933  0.29401650  1.0
  Ni  Ni288  1  0.31541000  0.25080033  0.38632064  1.0
  Ni  Ni289  1  0.31541000  0.58413367  0.38632064  1.0
  Ni  Ni290  1  0.31541000  0.91746700  0.38632064  1.0
  Ni  Ni291  1  0.64874333  0.25080033  0.38632064  1.0
  Ni  Ni292  1  0.64874333  0.58413367  0.38632064  1.0
  Ni  Ni293  1  0.64874333  0.91746700  0.38632064  1.0
  Ni  Ni294  1  0.98207667  0.25080033  0.38632064  1.0
  Ni  Ni295  1  0.98207667  0.58413367  0.38632064  1.0
  Ni  Ni296  1  0.98207667  0.91746700  0.38632064  1.0
  Ni  Ni297  1  0.33092633  0.30505767  0.34170950  1.0
  Ni  Ni298  1  0.33092633  0.63839100  0.34170950  1.0
  Ni  Ni299  1  0.33092633  0.97172433  0.34170950  1.0
  Ni  Ni300  1  0.66425967  0.30505767  0.34170950  1.0
  Ni  Ni301  1  0.66425967  0.63839100  0.34170950  1.0
  Ni  Ni302  1  0.66425967  0.97172433  0.34170950  1.0
  Ni  Ni303  1  0.99759300  0.30505767  0.34170950  1.0
  Ni  Ni304  1  0.99759300  0.63839100  0.34170950  1.0
  Ni  Ni305  1  0.99759300  0.97172433  0.34170950  1.0
  Ni  Ni306  1  0.32947533  0.19410067  0.38849279  1.0
  Ni  Ni307  1  0.32947533  0.52743400  0.38849279  1.0
  Ni  Ni308  1  0.32947533  0.86076733  0.38849279  1.0
  Ni  Ni309  1  0.66280867  0.19410067  0.38849279  1.0
  Ni  Ni310  1  0.66280867  0.52743400  0.38849279  1.0
  Ni  Ni311  1  0.66280867  0.86076733  0.38849279  1.0
  Ni  Ni312  1  0.99614200  0.19410067  0.38849279  1.0
  Ni  Ni313  1  0.99614200  0.52743400  0.38849279  1.0
  Ni  Ni314  1  0.99614200  0.86076733  0.38849279  1.0
  Ni  Ni315  1  0.01792333  0.08253300  0.29618864  1.0
  Ni  Ni316  1  0.01792333  0.41586633  0.29618864  1.0
  Ni  Ni317  1  0.01792333  0.74919967  0.29618864  1.0
  Ni  Ni318  1  0.35125667  0.08253300  0.29618864  1.0
  Ni  Ni319  1  0.35125667  0.41586633  0.29618864  1.0
  Ni  Ni320  1  0.35125667  0.74919967  0.29618864  1.0
  Ni  Ni321  1  0.68459000  0.08253300  0.29618864  1.0
  Ni  Ni322  1  0.68459000  0.41586633  0.29618864  1.0
  Ni  Ni323  1  0.68459000  0.74919967  0.29618864  1.0
