# generated using pymatgen
data_TiNi
_symmetry_space_group_name_H-M   'P 1'
_cell_length_a   8.74638300
_cell_length_b   12.16503000
_cell_length_c   33.27874921
_cell_angle_alpha   90.00000000
_cell_angle_beta   100.93193708
_cell_angle_gamma   90.00000000
_symmetry_Int_Tables_number   1
_chemical_formula_structural   TiNi
_chemical_formula_sum   'Ti54 Ni54'
_cell_volume   3476.60388367
_cell_formula_units_Z   54
loop_
 _symmetry_equiv_pos_site_id
 _symmetry_equiv_pos_as_xyz
  1  'x, y, z'
loop_
 _atom_site_type_symbol
 _atom_site_label
 _atom_site_symmetry_multiplicity
 _atom_site_fract_x
 _atom_site_fract_y
 _atom_site_fract_z
 _atom_site_occupancy
  Ti  Ti0  1  0.20149433  0.25000000  0.04066571  1.0
  Ti  Ti1  1  0.20149433  0.58333333  0.04066571  1.0
  Ti  Ti2  1  0.20149433  0.91666667  0.04066571  1.0
  Ti  Ti3  1  0.53482767  0.25000000  0.04066571  1.0
  Ti  Ti4  1  0.53482767  0.58333333  0.04066571  1.0
  Ti  Ti5  1  0.53482767  0.91666667  0.04066571  1.0
  Ti  Ti6  1  0.86816100  0.25000000  0.04066571  1.0
  Ti  Ti7  1  0.86816100  0.58333333  0.04066571  1.0
  Ti  Ti8  1  0.86816100  0.91666667  0.04066571  1.0
  Ti  Ti9  1  0.13183900  0.08333333  0.10219143  1.0
  Ti  Ti10  1  0.13183900  0.41666667  0.10219143  1.0
  Ti  Ti11  1  0.13183900  0.75000000  0.10219143  1.0
  Ti  Ti12  1  0.46517233  0.08333333  0.10219143  1.0
  Ti  Ti13  1  0.46517233  0.41666667  0.10219143  1.0
  Ti  Ti14  1  0.46517233  0.75000000  0.10219143  1.0
  Ti  Ti15  1  0.79850567  0.08333333  0.10219143  1.0
  Ti  Ti16  1  0.79850567  0.41666667  0.10219143  1.0
  Ti  Ti17  1  0.79850567  0.75000000  0.10219143  1.0
  Ni  Ni18  1  0.31444967  0.25000000  0.11828929  1.0
  Ni  Ni19  1  0.31444967  0.58333333  0.11828929  1.0
  Ni  Ni20  1  0.31444967  0.91666667  0.11828929  1.0
  Ni  Ni21  1  0.64778300  0.25000000  0.11828929  1.0
  Ni  Ni22  1  0.64778300  0.58333333  0.11828929  1.0
  Ni  Ni23  1  0.64778300  0.91666667  0.11828929  1.0
  Ni  Ni24  1  0.98111633  0.25000000  0.11828929  1.0
  Ni  Ni25  1  0.98111633  0.58333333  0.11828929  1.0
  Ni  Ni26  1  0.98111633  0.91666667  0.11828929  1.0
  Ni  Ni27  1  0.01888367  0.08333333  0.02456786  1.0
  Ni  Ni28  1  0.01888367  0.41666667  0.02456786  1.0
  Ni  Ni29  1  0.01888367  0.75000000  0.02456786  1.0
  Ni  Ni30  1  0.35221700  0.08333333  0.02456786  1.0
  Ni  Ni31  1  0.35221700  0.41666667  0.02456786  1.0
  Ni  Ni32  1  0.35221700  0.75000000  0.02456786  1.0
  Ni  Ni33  1  0.68555033  0.08333333  0.02456786  1.0
  Ni  Ni34  1  0.68555033  0.41666667  0.02456786  1.0
  Ni  Ni35  1  0.68555033  0.75000000  0.02456786  1.0
  Ti  Ti36  1  0.20149433  0.25000000  0.18352286  1.0
  Ti  Ti37  1  0.20149433  0.58333333  0.18352286  1.0
  Ti  Ti38  1  0.20149433  0.91666667  0.18352286  1.0
  Ti  Ti39  1  0.53482767  0.25000000  0.18352286  1.0
  Ti  Ti40  1  0.53482767  0.58333333  0.18352286  1.0
  Ti  Ti41  1  0.53482767  0.91666667  0.18352286  1.0
  Ti  Ti42  1  0.86816100  0.25000000  0.18352286  1.0
  Ti  Ti43  1  0.86816100  0.58333333  0.18352286  1.0
  Ti  Ti44  1  0.86816100  0.91666667  0.18352286  1.0
  Ti  Ti45  1  0.13183900  0.08333333  0.24504857  1.0
  Ti  Ti46  1  0.13183900  0.41666667  0.24504857  1.0
  Ti  Ti47  1  0.13183900  0.75000000  0.24504857  1.0
  Ti  Ti48  1  0.46517233  0.08333333  0.24504857  1.0
  Ti  Ti49  1  0.46517233  0.41666667  0.24504857  1.0
  Ti  Ti50  1  0.46517233  0.75000000  0.24504857  1.0
  Ti  Ti51  1  0.79850567  0.08333333  0.24504857  1.0
  Ti  Ti52  1  0.79850567  0.41666667  0.24504857  1.0
  Ti  Ti53  1  0.79850567  0.75000000  0.24504857  1.0
  Ni  Ni54  1  0.31444967  0.25000000  0.26114643  1.0
  Ni  Ni55  1  0.31444967  0.58333333  0.26114643  1.0
  Ni  Ni56  1  0.31444967  0.91666667  0.26114643  1.0
  Ni  Ni57  1  0.64778300  0.25000000  0.26114643  1.0
  Ni  Ni58  1  0.64778300  0.58333333  0.26114643  1.0
  Ni  Ni59  1  0.64778300  0.91666667  0.26114643  1.0
  Ni  Ni60  1  0.98111633  0.25000000  0.26114643  1.0
  Ni  Ni61  1  0.98111633  0.58333333  0.26114643  1.0
  Ni  Ni62  1  0.98111633  0.91666667  0.26114643  1.0
  Ni  Ni63  1  0.01888367  0.08333333  0.16742500  1.0
  Ni  Ni64  1  0.01888367  0.41666667  0.16742500  1.0
  Ni  Ni65  1  0.01888367  0.75000000  0.16742500  1.0
  Ni  Ni66  1  0.35221700  0.08333333  0.16742500  1.0
  Ni  Ni67  1  0.35221700  0.41666667  0.16742500  1.0
  Ni  Ni68  1  0.35221700  0.75000000  0.16742500  1.0
  Ni  Ni69  1  0.68555033  0.08333333  0.16742500  1.0
  Ni  Ni70  1  0.68555033  0.41666667  0.16742500  1.0
  Ni  Ni71  1  0.68555033  0.75000000  0.16742500  1.0
  Ti  Ti72  1  0.20149433  0.25000000  0.32638000  1.0
  Ti  Ti73  1  0.20149433  0.58333333  0.32638000  1.0
  Ti  Ti74  1  0.20149433  0.91666667  0.32638000  1.0
  Ti  Ti75  1  0.53482767  0.25000000  0.32638000  1.0
  Ti  Ti76  1  0.53482767  0.58333333  0.32638000  1.0
  Ti  Ti77  1  0.53482767  0.91666667  0.32638000  1.0
  Ti  Ti78  1  0.86816100  0.25000000  0.32638000  1.0
  Ti  Ti79  1  0.86816100  0.58333333  0.32638000  1.0
  Ti  Ti80  1  0.86816100  0.91666667  0.32638000  1.0
  Ti  Ti81  1  0.13183900  0.08333333  0.38790571  1.0
  Ti  Ti82  1  0.13183900  0.41666667  0.38790571  1.0
  Ti  Ti83  1  0.13183900  0.75000000  0.38790571  1.0
  Ti  Ti84  1  0.46517233  0.08333333  0.38790571  1.0
  Ti  Ti85  1  0.46517233  0.41666667  0.38790571  1.0
  Ti  Ti86  1  0.46517233  0.75000000  0.38790571  1.0
  Ti  Ti87  1  0.79850567  0.08333333  0.38790571  1.0
  Ti  Ti88  1  0.79850567  0.41666667  0.38790571  1.0
  Ti  Ti89  1  0.79850567  0.75000000  0.38790571  1.0
  Ni  Ni90  1  0.31444967  0.25000000  0.40400357  1.0
  Ni  Ni91  1  0.31444967  0.58333333  0.40400357  1.0
  Ni  Ni92  1  0.31444967  0.91666667  0.40400357  1.0
  Ni  Ni93  1  0.64778300  0.25000000  0.40400357  1.0
  Ni  Ni94  1  0.64778300  0.58333333  0.40400357  1.0
  Ni  Ni95  1  0.64778300  0.91666667  0.40400357  1.0
  Ni  Ni96  1  0.98111633  0.25000000  0.40400357  1.0
  Ni  Ni97  1  0.98111633  0.58333333  0.40400357  1.0
  Ni  Ni98  1  0.98111633  0.91666667  0.40400357  1.0
  Ni  Ni99  1  0.01888367  0.08333333  0.31028214  1.0
  Ni  Ni100  1  0.01888367  0.41666667  0.31028214  1.0
  Ni  Ni101  1  0.01888367  0.75000000  0.31028214  1.0
  Ni  Ni102  1  0.35221700  0.08333333  0.31028214  1.0
  Ni  Ni103  1  0.35221700  0.41666667  0.31028214  1.0
  Ni  Ni104  1  0.35221700  0.75000000  0.31028214  1.0
  Ni  Ni105  1  0.68555033  0.08333333  0.31028214  1.0
  Ni  Ni106  1  0.68555033  0.41666667  0.31028214  1.0
  Ni  Ni107  1  0.68555033  0.75000000  0.31028214  1.0
