# generated using pymatgen
data_TiNi3
_symmetry_space_group_name_H-M   'P 1'
_cell_length_a   15.28750110
_cell_length_b   39.45337978
_cell_length_c   41.55780500
_cell_angle_alpha   50.80189104
_cell_angle_beta   90.00000000
_cell_angle_gamma   67.20204556
_symmetry_Int_Tables_number   1
_chemical_formula_structural   TiNi3
_chemical_formula_sum   'Ti144 Ni432'
_cell_volume   16822.33320298
_cell_formula_units_Z   144
loop_
 _symmetry_equiv_pos_site_id
 _symmetry_equiv_pos_as_xyz
  1  'x, y, z'
loop_
 _atom_site_type_symbol
 _atom_site_label
 _atom_site_symmetry_multiplicity
 _atom_site_fract_x
 _atom_site_fract_y
 _atom_site_fract_z
 _atom_site_occupancy
  Ti  Ti0  1  0.22222222  0.11111111  0.17550383  1.0
  Ti  Ti1  1  0.22222222  0.44444444  0.17550383  1.0
  Ti  Ti2  1  0.22222222  0.77777778  0.17550383  1.0
  Ti  Ti3  1  0.55555556  0.11111111  0.17550383  1.0
  Ti  Ti4  1  0.55555556  0.44444444  0.17550383  1.0
  Ti  Ti5  1  0.55555556  0.77777778  0.17550383  1.0
  Ti  Ti6  1  0.88888889  0.11111111  0.17550383  1.0
  Ti  Ti7  1  0.88888889  0.44444444  0.17550383  1.0
  Ti  Ti8  1  0.88888889  0.77777778  0.17550383  1.0
  Ti  Ti9  1  0.22222222  0.27777778  0.07550383  1.0
  Ti  Ti10  1  0.22222222  0.61111111  0.07550383  1.0
  Ti  Ti11  1  0.22222222  0.94444444  0.07550383  1.0
  Ti  Ti12  1  0.55555556  0.27777778  0.07550383  1.0
  Ti  Ti13  1  0.55555556  0.61111111  0.07550383  1.0
  Ti  Ti14  1  0.55555556  0.94444444  0.07550383  1.0
  Ti  Ti15  1  0.88888889  0.27777778  0.07550383  1.0
  Ti  Ti16  1  0.88888889  0.61111111  0.07550383  1.0
  Ti  Ti17  1  0.88888889  0.94444444  0.07550383  1.0
  Ti  Ti18  1  0.11111111  0.05555556  0.10883717  1.0
  Ti  Ti19  1  0.11111111  0.38888889  0.10883717  1.0
  Ti  Ti20  1  0.11111111  0.72222222  0.10883717  1.0
  Ti  Ti21  1  0.44444444  0.05555556  0.10883717  1.0
  Ti  Ti22  1  0.44444444  0.38888889  0.10883717  1.0
  Ti  Ti23  1  0.44444444  0.72222222  0.10883717  1.0
  Ti  Ti24  1  0.77777778  0.05555556  0.10883717  1.0
  Ti  Ti25  1  0.77777778  0.38888889  0.10883717  1.0
  Ti  Ti26  1  0.77777778  0.72222222  0.10883717  1.0
  Ti  Ti27  1  0.11111111  0.22222222  0.00883717  1.0
  Ti  Ti28  1  0.11111111  0.55555556  0.00883717  1.0
  Ti  Ti29  1  0.11111111  0.88888889  0.00883717  1.0
  Ti  Ti30  1  0.44444444  0.22222222  0.00883717  1.0
  Ti  Ti31  1  0.44444444  0.55555556  0.00883717  1.0
  Ti  Ti32  1  0.44444444  0.88888889  0.00883717  1.0
  Ti  Ti33  1  0.77777778  0.22222222  0.00883717  1.0
  Ti  Ti34  1  0.77777778  0.55555556  0.00883717  1.0
  Ti  Ti35  1  0.77777778  0.88888889  0.00883717  1.0
  Ti  Ti36  1  0.00000000  0.16666667  0.09217050  1.0
  Ti  Ti37  1  0.00000000  0.50000000  0.09217050  1.0
  Ti  Ti38  1  0.00000000  0.83333333  0.09217050  1.0
  Ti  Ti39  1  0.33333333  0.16666667  0.09217050  1.0
  Ti  Ti40  1  0.33333333  0.50000000  0.09217050  1.0
  Ti  Ti41  1  0.33333333  0.83333333  0.09217050  1.0
  Ti  Ti42  1  0.66666667  0.16666667  0.09217050  1.0
  Ti  Ti43  1  0.66666667  0.50000000  0.09217050  1.0
  Ti  Ti44  1  0.66666667  0.83333333  0.09217050  1.0
  Ti  Ti45  1  0.00000000  0.00000000  0.19217050  1.0
  Ti  Ti46  1  0.00000000  0.33333333  0.19217050  1.0
  Ti  Ti47  1  0.00000000  0.66666667  0.19217050  1.0
  Ti  Ti48  1  0.33333333  0.00000000  0.19217050  1.0
  Ti  Ti49  1  0.33333333  0.33333333  0.19217050  1.0
  Ti  Ti50  1  0.33333333  0.66666667  0.19217050  1.0
  Ti  Ti51  1  0.66666667  0.00000000  0.19217050  1.0
  Ti  Ti52  1  0.66666667  0.33333333  0.19217050  1.0
  Ti  Ti53  1  0.66666667  0.66666667  0.19217050  1.0
  Ti  Ti54  1  0.00000000  0.16666667  0.19217050  1.0
  Ti  Ti55  1  0.00000000  0.50000000  0.19217050  1.0
  Ti  Ti56  1  0.00000000  0.83333333  0.19217050  1.0
  Ti  Ti57  1  0.33333333  0.16666667  0.19217050  1.0
  Ti  Ti58  1  0.33333333  0.50000000  0.19217050  1.0
  Ti  Ti59  1  0.33333333  0.83333333  0.19217050  1.0
  Ti  Ti60  1  0.66666667  0.16666667  0.19217050  1.0
  Ti  Ti61  1  0.66666667  0.50000000  0.19217050  1.0
  Ti  Ti62  1  0.66666667  0.83333333  0.19217050  1.0
  Ti  Ti63  1  0.00000000  0.00000000  0.09217050  1.0
  Ti  Ti64  1  0.00000000  0.33333333  0.09217050  1.0
  Ti  Ti65  1  0.00000000  0.66666667  0.09217050  1.0
  Ti  Ti66  1  0.33333333  0.00000000  0.09217050  1.0
  Ti  Ti67  1  0.33333333  0.33333333  0.09217050  1.0
  Ti  Ti68  1  0.33333333  0.66666667  0.09217050  1.0
  Ti  Ti69  1  0.66666667  0.00000000  0.09217050  1.0
  Ti  Ti70  1  0.66666667  0.33333333  0.09217050  1.0
  Ti  Ti71  1  0.66666667  0.66666667  0.09217050  1.0
  Ni  Ni72  1  0.00000000  0.08333333  0.04217050  1.0
  Ni  Ni73  1  0.00000000  0.41666667  0.04217050  1.0
  Ni  Ni74  1  0.00000000  0.75000000  0.04217050  1.0
  Ni  Ni75  1  0.33333333  0.08333333  0.04217050  1.0
  Ni  Ni76  1  0.33333333  0.41666667  0.04217050  1.0
  Ni  Ni77  1  0.33333333  0.75000000  0.04217050  1.0
  Ni  Ni78  1  0.66666667  0.08333333  0.04217050  1.0
  Ni  Ni79  1  0.66666667  0.41666667  0.04217050  1.0
  Ni  Ni80  1  0.66666667  0.75000000  0.04217050  1.0
  Ni  Ni81  1  0.00000000  0.25000000  0.14217050  1.0
  Ni  Ni82  1  0.00000000  0.58333333  0.14217050  1.0
  Ni  Ni83  1  0.00000000  0.91666667  0.14217050  1.0
  Ni  Ni84  1  0.33333333  0.25000000  0.14217050  1.0
  Ni  Ni85  1  0.33333333  0.58333333  0.14217050  1.0
  Ni  Ni86  1  0.33333333  0.91666667  0.14217050  1.0
  Ni  Ni87  1  0.66666667  0.25000000  0.14217050  1.0
  Ni  Ni88  1  0.66666667  0.58333333  0.14217050  1.0
  Ni  Ni89  1  0.66666667  0.91666667  0.14217050  1.0
  Ni  Ni90  1  0.16666667  0.16666667  0.09217050  1.0
  Ni  Ni91  1  0.16666667  0.50000000  0.09217050  1.0
  Ni  Ni92  1  0.16666667  0.83333333  0.09217050  1.0
  Ni  Ni93  1  0.50000000  0.16666667  0.09217050  1.0
  Ni  Ni94  1  0.50000000  0.50000000  0.09217050  1.0
  Ni  Ni95  1  0.50000000  0.83333333  0.09217050  1.0
  Ni  Ni96  1  0.83333333  0.16666667  0.09217050  1.0
  Ni  Ni97  1  0.83333333  0.50000000  0.09217050  1.0
  Ni  Ni98  1  0.83333333  0.83333333  0.09217050  1.0
  Ni  Ni99  1  0.16666667  0.00000000  0.19217050  1.0
  Ni  Ni100  1  0.16666667  0.33333333  0.19217050  1.0
  Ni  Ni101  1  0.16666667  0.66666667  0.19217050  1.0
  Ni  Ni102  1  0.50000000  0.00000000  0.19217050  1.0
  Ni  Ni103  1  0.50000000  0.33333333  0.19217050  1.0
  Ni  Ni104  1  0.50000000  0.66666667  0.19217050  1.0
  Ni  Ni105  1  0.83333333  0.00000000  0.19217050  1.0
  Ni  Ni106  1  0.83333333  0.33333333  0.19217050  1.0
  Ni  Ni107  1  0.83333333  0.66666667  0.19217050  1.0
  Ni  Ni108  1  0.27609833  0.05723500  0.10782950  1.0
  Ni  Ni109  1  0.27609833  0.39056833  0.10782950  1.0
  Ni  Ni110  1  0.27609833  0.72390167  0.10782950  1.0
  Ni  Ni111  1  0.60943167  0.05723500  0.10782950  1.0
  Ni  Ni112  1  0.60943167  0.39056833  0.10782950  1.0
  Ni  Ni113  1  0.60943167  0.72390167  0.10782950  1.0
  Ni  Ni114  1  0.94276500  0.05723500  0.10782950  1.0
  Ni  Ni115  1  0.94276500  0.39056833  0.10782950  1.0
  Ni  Ni116  1  0.94276500  0.72390167  0.10782950  1.0
  Ni  Ni117  1  0.27609833  0.22390167  0.00782950  1.0
  Ni  Ni118  1  0.27609833  0.55723500  0.00782950  1.0
  Ni  Ni119  1  0.27609833  0.89056833  0.00782950  1.0
  Ni  Ni120  1  0.60943167  0.22390167  0.00782950  1.0
  Ni  Ni121  1  0.60943167  0.55723500  0.00782950  1.0
  Ni  Ni122  1  0.60943167  0.89056833  0.00782950  1.0
  Ni  Ni123  1  0.94276500  0.22390167  0.00782950  1.0
  Ni  Ni124  1  0.94276500  0.55723500  0.00782950  1.0
  Ni  Ni125  1  0.94276500  0.89056833  0.00782950  1.0
  Ni  Ni126  1  0.21886333  0.02861750  0.02500000  1.0
  Ni  Ni127  1  0.21886333  0.36195083  0.02500000  1.0
  Ni  Ni128  1  0.21886333  0.69528417  0.02500000  1.0
  Ni  Ni129  1  0.55219667  0.02861750  0.02500000  1.0
  Ni  Ni130  1  0.55219667  0.36195083  0.02500000  1.0
  Ni  Ni131  1  0.55219667  0.69528417  0.02500000  1.0
  Ni  Ni132  1  0.88553000  0.02861750  0.02500000  1.0
  Ni  Ni133  1  0.88553000  0.36195083  0.02500000  1.0
  Ni  Ni134  1  0.88553000  0.69528417  0.02500000  1.0
  Ni  Ni135  1  0.21886333  0.19528417  0.12500000  1.0
  Ni  Ni136  1  0.21886333  0.52861750  0.12500000  1.0
  Ni  Ni137  1  0.21886333  0.86195083  0.12500000  1.0
  Ni  Ni138  1  0.55219667  0.19528417  0.12500000  1.0
  Ni  Ni139  1  0.55219667  0.52861750  0.12500000  1.0
  Ni  Ni140  1  0.55219667  0.86195083  0.12500000  1.0
  Ni  Ni141  1  0.88553000  0.19528417  0.12500000  1.0
  Ni  Ni142  1  0.88553000  0.52861750  0.12500000  1.0
  Ni  Ni143  1  0.88553000  0.86195083  0.12500000  1.0
  Ni  Ni144  1  0.05723500  0.02861750  0.02500000  1.0
  Ni  Ni145  1  0.05723500  0.36195083  0.02500000  1.0
  Ni  Ni146  1  0.05723500  0.69528417  0.02500000  1.0
  Ni  Ni147  1  0.39056833  0.02861750  0.02500000  1.0
  Ni  Ni148  1  0.39056833  0.36195083  0.02500000  1.0
  Ni  Ni149  1  0.39056833  0.69528417  0.02500000  1.0
  Ni  Ni150  1  0.72390167  0.02861750  0.02500000  1.0
  Ni  Ni151  1  0.72390167  0.36195083  0.02500000  1.0
  Ni  Ni152  1  0.72390167  0.69528417  0.02500000  1.0
  Ni  Ni153  1  0.05723500  0.19528417  0.12500000  1.0
  Ni  Ni154  1  0.05723500  0.52861750  0.12500000  1.0
  Ni  Ni155  1  0.05723500  0.86195083  0.12500000  1.0
  Ni  Ni156  1  0.39056833  0.19528417  0.12500000  1.0
  Ni  Ni157  1  0.39056833  0.52861750  0.12500000  1.0
  Ni  Ni158  1  0.39056833  0.86195083  0.12500000  1.0
  Ni  Ni159  1  0.72390167  0.19528417  0.12500000  1.0
  Ni  Ni160  1  0.72390167  0.52861750  0.12500000  1.0
  Ni  Ni161  1  0.72390167  0.86195083  0.12500000  1.0
  Ni  Ni162  1  0.27609833  0.13804917  0.05934100  1.0
  Ni  Ni163  1  0.27609833  0.47138250  0.05934100  1.0
  Ni  Ni164  1  0.27609833  0.80471583  0.05934100  1.0
  Ni  Ni165  1  0.60943167  0.13804917  0.05934100  1.0
  Ni  Ni166  1  0.60943167  0.47138250  0.05934100  1.0
  Ni  Ni167  1  0.60943167  0.80471583  0.05934100  1.0
  Ni  Ni168  1  0.94276500  0.13804917  0.05934100  1.0
  Ni  Ni169  1  0.94276500  0.47138250  0.05934100  1.0
  Ni  Ni170  1  0.94276500  0.80471583  0.05934100  1.0
  Ni  Ni171  1  0.27609833  0.30471583  0.15934100  1.0
  Ni  Ni172  1  0.27609833  0.63804917  0.15934100  1.0
  Ni  Ni173  1  0.27609833  0.97138250  0.15934100  1.0
  Ni  Ni174  1  0.60943167  0.30471583  0.15934100  1.0
  Ni  Ni175  1  0.60943167  0.63804917  0.15934100  1.0
  Ni  Ni176  1  0.60943167  0.97138250  0.15934100  1.0
  Ni  Ni177  1  0.94276500  0.30471583  0.15934100  1.0
  Ni  Ni178  1  0.94276500  0.63804917  0.15934100  1.0
  Ni  Ni179  1  0.94276500  0.97138250  0.15934100  1.0
  Ni  Ni180  1  0.11447000  0.13804917  0.05934100  1.0
  Ni  Ni181  1  0.11447000  0.47138250  0.05934100  1.0
  Ni  Ni182  1  0.11447000  0.80471583  0.05934100  1.0
  Ni  Ni183  1  0.44780333  0.13804917  0.05934100  1.0
  Ni  Ni184  1  0.44780333  0.47138250  0.05934100  1.0
  Ni  Ni185  1  0.44780333  0.80471583  0.05934100  1.0
  Ni  Ni186  1  0.78113667  0.13804917  0.05934100  1.0
  Ni  Ni187  1  0.78113667  0.47138250  0.05934100  1.0
  Ni  Ni188  1  0.78113667  0.80471583  0.05934100  1.0
  Ni  Ni189  1  0.11447000  0.30471583  0.15934100  1.0
  Ni  Ni190  1  0.11447000  0.63804917  0.15934100  1.0
  Ni  Ni191  1  0.11447000  0.97138250  0.15934100  1.0
  Ni  Ni192  1  0.44780333  0.30471583  0.15934100  1.0
  Ni  Ni193  1  0.44780333  0.63804917  0.15934100  1.0
  Ni  Ni194  1  0.44780333  0.97138250  0.15934100  1.0
  Ni  Ni195  1  0.78113667  0.30471583  0.15934100  1.0
  Ni  Ni196  1  0.78113667  0.63804917  0.15934100  1.0
  Ni  Ni197  1  0.78113667  0.97138250  0.15934100  1.0
  Ni  Ni198  1  0.05723500  0.10943167  0.17651150  1.0
  Ni  Ni199  1  0.05723500  0.44276500  0.17651150  1.0
  Ni  Ni200  1  0.05723500  0.77609833  0.17651150  1.0
  Ni  Ni201  1  0.39056833  0.10943167  0.17651150  1.0
  Ni  Ni202  1  0.39056833  0.44276500  0.17651150  1.0
  Ni  Ni203  1  0.39056833  0.77609833  0.17651150  1.0
  Ni  Ni204  1  0.72390167  0.10943167  0.17651150  1.0
  Ni  Ni205  1  0.72390167  0.44276500  0.17651150  1.0
  Ni  Ni206  1  0.72390167  0.77609833  0.17651150  1.0
  Ni  Ni207  1  0.05723500  0.27609833  0.07651150  1.0
  Ni  Ni208  1  0.05723500  0.60943167  0.07651150  1.0
  Ni  Ni209  1  0.05723500  0.94276500  0.07651150  1.0
  Ni  Ni210  1  0.39056833  0.27609833  0.07651150  1.0
  Ni  Ni211  1  0.39056833  0.60943167  0.07651150  1.0
  Ni  Ni212  1  0.39056833  0.94276500  0.07651150  1.0
  Ni  Ni213  1  0.72390167  0.27609833  0.07651150  1.0
  Ni  Ni214  1  0.72390167  0.60943167  0.07651150  1.0
  Ni  Ni215  1  0.72390167  0.94276500  0.07651150  1.0
  Ni  Ni216  1  0.16666667  0.08333333  0.04217050  1.0
  Ni  Ni217  1  0.16666667  0.41666667  0.04217050  1.0
  Ni  Ni218  1  0.16666667  0.75000000  0.04217050  1.0
  Ni  Ni219  1  0.50000000  0.08333333  0.04217050  1.0
  Ni  Ni220  1  0.50000000  0.41666667  0.04217050  1.0
  Ni  Ni221  1  0.50000000  0.75000000  0.04217050  1.0
  Ni  Ni222  1  0.83333333  0.08333333  0.04217050  1.0
  Ni  Ni223  1  0.83333333  0.41666667  0.04217050  1.0
  Ni  Ni224  1  0.83333333  0.75000000  0.04217050  1.0
  Ni  Ni225  1  0.16666667  0.25000000  0.14217050  1.0
  Ni  Ni226  1  0.16666667  0.58333333  0.14217050  1.0
  Ni  Ni227  1  0.16666667  0.91666667  0.14217050  1.0
  Ni  Ni228  1  0.50000000  0.25000000  0.14217050  1.0
  Ni  Ni229  1  0.50000000  0.58333333  0.14217050  1.0
  Ni  Ni230  1  0.50000000  0.91666667  0.14217050  1.0
  Ni  Ni231  1  0.83333333  0.25000000  0.14217050  1.0
  Ni  Ni232  1  0.83333333  0.58333333  0.14217050  1.0
  Ni  Ni233  1  0.83333333  0.91666667  0.14217050  1.0
  Ni  Ni234  1  0.16666667  0.08333333  0.14217050  1.0
  Ni  Ni235  1  0.16666667  0.41666667  0.14217050  1.0
  Ni  Ni236  1  0.16666667  0.75000000  0.14217050  1.0
  Ni  Ni237  1  0.50000000  0.08333333  0.14217050  1.0
  Ni  Ni238  1  0.50000000  0.41666667  0.14217050  1.0
  Ni  Ni239  1  0.50000000  0.75000000  0.14217050  1.0
  Ni  Ni240  1  0.83333333  0.08333333  0.14217050  1.0
  Ni  Ni241  1  0.83333333  0.41666667  0.14217050  1.0
  Ni  Ni242  1  0.83333333  0.75000000  0.14217050  1.0
  Ni  Ni243  1  0.16666667  0.25000000  0.04217050  1.0
  Ni  Ni244  1  0.16666667  0.58333333  0.04217050  1.0
  Ni  Ni245  1  0.16666667  0.91666667  0.04217050  1.0
  Ni  Ni246  1  0.50000000  0.25000000  0.04217050  1.0
  Ni  Ni247  1  0.50000000  0.58333333  0.04217050  1.0
  Ni  Ni248  1  0.50000000  0.91666667  0.04217050  1.0
  Ni  Ni249  1  0.83333333  0.25000000  0.04217050  1.0
  Ni  Ni250  1  0.83333333  0.58333333  0.04217050  1.0
  Ni  Ni251  1  0.83333333  0.91666667  0.04217050  1.0
  Ni  Ni252  1  0.00000000  0.08333333  0.14217050  1.0
  Ni  Ni253  1  0.00000000  0.41666667  0.14217050  1.0
  Ni  Ni254  1  0.00000000  0.75000000  0.14217050  1.0
  Ni  Ni255  1  0.33333333  0.08333333  0.14217050  1.0
  Ni  Ni256  1  0.33333333  0.41666667  0.14217050  1.0
  Ni  Ni257  1  0.33333333  0.75000000  0.14217050  1.0
  Ni  Ni258  1  0.66666667  0.08333333  0.14217050  1.0
  Ni  Ni259  1  0.66666667  0.41666667  0.14217050  1.0
  Ni  Ni260  1  0.66666667  0.75000000  0.14217050  1.0
  Ni  Ni261  1  0.00000000  0.25000000  0.04217050  1.0
  Ni  Ni262  1  0.00000000  0.58333333  0.04217050  1.0
  Ni  Ni263  1  0.00000000  0.91666667  0.04217050  1.0
  Ni  Ni264  1  0.33333333  0.25000000  0.04217050  1.0
  Ni  Ni265  1  0.33333333  0.58333333  0.04217050  1.0
  Ni  Ni266  1  0.33333333  0.91666667  0.04217050  1.0
  Ni  Ni267  1  0.66666667  0.25000000  0.04217050  1.0
  Ni  Ni268  1  0.66666667  0.58333333  0.04217050  1.0
  Ni  Ni269  1  0.66666667  0.91666667  0.04217050  1.0
  Ni  Ni270  1  0.16666667  0.16666667  0.19217050  1.0
  Ni  Ni271  1  0.16666667  0.50000000  0.19217050  1.0
  Ni  Ni272  1  0.16666667  0.83333333  0.19217050  1.0
  Ni  Ni273  1  0.50000000  0.16666667  0.19217050  1.0
  Ni  Ni274  1  0.50000000  0.50000000  0.19217050  1.0
  Ni  Ni275  1  0.50000000  0.83333333  0.19217050  1.0
  Ni  Ni276  1  0.83333333  0.16666667  0.19217050  1.0
  Ni  Ni277  1  0.83333333  0.50000000  0.19217050  1.0
  Ni  Ni278  1  0.83333333  0.83333333  0.19217050  1.0
  Ni  Ni279  1  0.16666667  0.00000000  0.09217050  1.0
  Ni  Ni280  1  0.16666667  0.33333333  0.09217050  1.0
  Ni  Ni281  1  0.16666667  0.66666667  0.09217050  1.0
  Ni  Ni282  1  0.50000000  0.00000000  0.09217050  1.0
  Ni  Ni283  1  0.50000000  0.33333333  0.09217050  1.0
  Ni  Ni284  1  0.50000000  0.66666667  0.09217050  1.0
  Ni  Ni285  1  0.83333333  0.00000000  0.09217050  1.0
  Ni  Ni286  1  0.83333333  0.33333333  0.09217050  1.0
  Ni  Ni287  1  0.83333333  0.66666667  0.09217050  1.0
  Ti  Ti288  1  0.22222222  0.11111111  0.37550383  1.0
  Ti  Ti289  1  0.22222222  0.44444444  0.37550383  1.0
  Ti  Ti290  1  0.22222222  0.77777778  0.37550383  1.0
  Ti  Ti291  1  0.55555556  0.11111111  0.37550383  1.0
  Ti  Ti292  1  0.55555556  0.44444444  0.37550383  1.0
  Ti  Ti293  1  0.55555556  0.77777778  0.37550383  1.0
  Ti  Ti294  1  0.88888889  0.11111111  0.37550383  1.0
  Ti  Ti295  1  0.88888889  0.44444444  0.37550383  1.0
  Ti  Ti296  1  0.88888889  0.77777778  0.37550383  1.0
  Ti  Ti297  1  0.22222222  0.27777778  0.27550383  1.0
  Ti  Ti298  1  0.22222222  0.61111111  0.27550383  1.0
  Ti  Ti299  1  0.22222222  0.94444444  0.27550383  1.0
  Ti  Ti300  1  0.55555556  0.27777778  0.27550383  1.0
  Ti  Ti301  1  0.55555556  0.61111111  0.27550383  1.0
  Ti  Ti302  1  0.55555556  0.94444444  0.27550383  1.0
  Ti  Ti303  1  0.88888889  0.27777778  0.27550383  1.0
  Ti  Ti304  1  0.88888889  0.61111111  0.27550383  1.0
  Ti  Ti305  1  0.88888889  0.94444444  0.27550383  1.0
  Ti  Ti306  1  0.11111111  0.05555556  0.30883717  1.0
  Ti  Ti307  1  0.11111111  0.38888889  0.30883717  1.0
  Ti  Ti308  1  0.11111111  0.72222222  0.30883717  1.0
  Ti  Ti309  1  0.44444444  0.05555556  0.30883717  1.0
  Ti  Ti310  1  0.44444444  0.38888889  0.30883717  1.0
  Ti  Ti311  1  0.44444444  0.72222222  0.30883717  1.0
  Ti  Ti312  1  0.77777778  0.05555556  0.30883717  1.0
  Ti  Ti313  1  0.77777778  0.38888889  0.30883717  1.0
  Ti  Ti314  1  0.77777778  0.72222222  0.30883717  1.0
  Ti  Ti315  1  0.11111111  0.22222222  0.20883717  1.0
  Ti  Ti316  1  0.11111111  0.55555556  0.20883717  1.0
  Ti  Ti317  1  0.11111111  0.88888889  0.20883717  1.0
  Ti  Ti318  1  0.44444444  0.22222222  0.20883717  1.0
  Ti  Ti319  1  0.44444444  0.55555556  0.20883717  1.0
  Ti  Ti320  1  0.44444444  0.88888889  0.20883717  1.0
  Ti  Ti321  1  0.77777778  0.22222222  0.20883717  1.0
  Ti  Ti322  1  0.77777778  0.55555556  0.20883717  1.0
  Ti  Ti323  1  0.77777778  0.88888889  0.20883717  1.0
  Ti  Ti324  1  0.00000000  0.16666667  0.29217050  1.0
  Ti  Ti325  1  0.00000000  0.50000000  0.29217050  1.0
  Ti  Ti326  1  0.00000000  0.83333333  0.29217050  1.0
  Ti  Ti327  1  0.33333333  0.16666667  0.29217050  1.0
  Ti  Ti328  1  0.33333333  0.50000000  0.29217050  1.0
  Ti  Ti329  1  0.33333333  0.83333333  0.29217050  1.0
  Ti  Ti330  1  0.66666667  0.16666667  0.29217050  1.0
  Ti  Ti331  1  0.66666667  0.50000000  0.29217050  1.0
  Ti  Ti332  1  0.66666667  0.83333333  0.29217050  1.0
  Ti  Ti333  1  0.00000000  0.00000000  0.39217050  1.0
  Ti  Ti334  1  0.00000000  0.33333333  0.39217050  1.0
  Ti  Ti335  1  0.00000000  0.66666667  0.39217050  1.0
  Ti  Ti336  1  0.33333333  0.00000000  0.39217050  1.0
  Ti  Ti337  1  0.33333333  0.33333333  0.39217050  1.0
  Ti  Ti338  1  0.33333333  0.66666667  0.39217050  1.0
  Ti  Ti339  1  0.66666667  0.00000000  0.39217050  1.0
  Ti  Ti340  1  0.66666667  0.33333333  0.39217050  1.0
  Ti  Ti341  1  0.66666667  0.66666667  0.39217050  1.0
  Ti  Ti342  1  0.00000000  0.16666667  0.39217050  1.0
  Ti  Ti343  1  0.00000000  0.50000000  0.39217050  1.0
  Ti  Ti344  1  0.00000000  0.83333333  0.39217050  1.0
  Ti  Ti345  1  0.33333333  0.16666667  0.39217050  1.0
  Ti  Ti346  1  0.33333333  0.50000000  0.39217050  1.0
  Ti  Ti347  1  0.33333333  0.83333333  0.39217050  1.0
  Ti  Ti348  1  0.66666667  0.16666667  0.39217050  1.0
  Ti  Ti349  1  0.66666667  0.50000000  0.39217050  1.0
  Ti  Ti350  1  0.66666667  0.83333333  0.39217050  1.0
  Ti  Ti351  1  0.00000000  0.00000000  0.29217050  1.0
  Ti  Ti352  1  0.00000000  0.33333333  0.29217050  1.0
  Ti  Ti353  1  0.00000000  0.66666667  0.29217050  1.0
  Ti  Ti354  1  0.33333333  0.00000000  0.29217050  1.0
  Ti  Ti355  1  0.33333333  0.33333333  0.29217050  1.0
  Ti  Ti356  1  0.33333333  0.66666667  0.29217050  1.0
  Ti  Ti357  1  0.66666667  0.00000000  0.29217050  1.0
  Ti  Ti358  1  0.66666667  0.33333333  0.29217050  1.0
  Ti  Ti359  1  0.66666667  0.66666667  0.29217050  1.0
  Ni  Ni360  1  0.00000000  0.08333333  0.24217050  1.0
  Ni  Ni361  1  0.00000000  0.41666667  0.24217050  1.0
  Ni  Ni362  1  0.00000000  0.75000000  0.24217050  1.0
  Ni  Ni363  1  0.33333333  0.08333333  0.24217050  1.0
  Ni  Ni364  1  0.33333333  0.41666667  0.24217050  1.0
  Ni  Ni365  1  0.33333333  0.75000000  0.24217050  1.0
  Ni  Ni366  1  0.66666667  0.08333333  0.24217050  1.0
  Ni  Ni367  1  0.66666667  0.41666667  0.24217050  1.0
  Ni  Ni368  1  0.66666667  0.75000000  0.24217050  1.0
  Ni  Ni369  1  0.00000000  0.25000000  0.34217050  1.0
  Ni  Ni370  1  0.00000000  0.58333333  0.34217050  1.0
  Ni  Ni371  1  0.00000000  0.91666667  0.34217050  1.0
  Ni  Ni372  1  0.33333333  0.25000000  0.34217050  1.0
  Ni  Ni373  1  0.33333333  0.58333333  0.34217050  1.0
  Ni  Ni374  1  0.33333333  0.91666667  0.34217050  1.0
  Ni  Ni375  1  0.66666667  0.25000000  0.34217050  1.0
  Ni  Ni376  1  0.66666667  0.58333333  0.34217050  1.0
  Ni  Ni377  1  0.66666667  0.91666667  0.34217050  1.0
  Ni  Ni378  1  0.16666667  0.16666667  0.29217050  1.0
  Ni  Ni379  1  0.16666667  0.50000000  0.29217050  1.0
  Ni  Ni380  1  0.16666667  0.83333333  0.29217050  1.0
  Ni  Ni381  1  0.50000000  0.16666667  0.29217050  1.0
  Ni  Ni382  1  0.50000000  0.50000000  0.29217050  1.0
  Ni  Ni383  1  0.50000000  0.83333333  0.29217050  1.0
  Ni  Ni384  1  0.83333333  0.16666667  0.29217050  1.0
  Ni  Ni385  1  0.83333333  0.50000000  0.29217050  1.0
  Ni  Ni386  1  0.83333333  0.83333333  0.29217050  1.0
  Ni  Ni387  1  0.16666667  0.00000000  0.39217050  1.0
  Ni  Ni388  1  0.16666667  0.33333333  0.39217050  1.0
  Ni  Ni389  1  0.16666667  0.66666667  0.39217050  1.0
  Ni  Ni390  1  0.50000000  0.00000000  0.39217050  1.0
  Ni  Ni391  1  0.50000000  0.33333333  0.39217050  1.0
  Ni  Ni392  1  0.50000000  0.66666667  0.39217050  1.0
  Ni  Ni393  1  0.83333333  0.00000000  0.39217050  1.0
  Ni  Ni394  1  0.83333333  0.33333333  0.39217050  1.0
  Ni  Ni395  1  0.83333333  0.66666667  0.39217050  1.0
  Ni  Ni396  1  0.27609833  0.05723500  0.30782950  1.0
  Ni  Ni397  1  0.27609833  0.39056833  0.30782950  1.0
  Ni  Ni398  1  0.27609833  0.72390167  0.30782950  1.0
  Ni  Ni399  1  0.60943167  0.05723500  0.30782950  1.0
  Ni  Ni400  1  0.60943167  0.39056833  0.30782950  1.0
  Ni  Ni401  1  0.60943167  0.72390167  0.30782950  1.0
  Ni  Ni402  1  0.94276500  0.05723500  0.30782950  1.0
  Ni  Ni403  1  0.94276500  0.39056833  0.30782950  1.0
  Ni  Ni404  1  0.94276500  0.72390167  0.30782950  1.0
  Ni  Ni405  1  0.27609833  0.22390167  0.20782950  1.0
  Ni  Ni406  1  0.27609833  0.55723500  0.20782950  1.0
  Ni  Ni407  1  0.27609833  0.89056833  0.20782950  1.0
  Ni  Ni408  1  0.60943167  0.22390167  0.20782950  1.0
  Ni  Ni409  1  0.60943167  0.55723500  0.20782950  1.0
  Ni  Ni410  1  0.60943167  0.89056833  0.20782950  1.0
  Ni  Ni411  1  0.94276500  0.22390167  0.20782950  1.0
  Ni  Ni412  1  0.94276500  0.55723500  0.20782950  1.0
  Ni  Ni413  1  0.94276500  0.89056833  0.20782950  1.0
  Ni  Ni414  1  0.21886333  0.02861750  0.22500000  1.0
  Ni  Ni415  1  0.21886333  0.36195083  0.22500000  1.0
  Ni  Ni416  1  0.21886333  0.69528417  0.22500000  1.0
  Ni  Ni417  1  0.55219667  0.02861750  0.22500000  1.0
  Ni  Ni418  1  0.55219667  0.36195083  0.22500000  1.0
  Ni  Ni419  1  0.55219667  0.69528417  0.22500000  1.0
  Ni  Ni420  1  0.88553000  0.02861750  0.22500000  1.0
  Ni  Ni421  1  0.88553000  0.36195083  0.22500000  1.0
  Ni  Ni422  1  0.88553000  0.69528417  0.22500000  1.0
  Ni  Ni423  1  0.21886333  0.19528417  0.32500000  1.0
  Ni  Ni424  1  0.21886333  0.52861750  0.32500000  1.0
  Ni  Ni425  1  0.21886333  0.86195083  0.32500000  1.0
  Ni  Ni426  1  0.55219667  0.19528417  0.32500000  1.0
  Ni  Ni427  1  0.55219667  0.52861750  0.32500000  1.0
  Ni  Ni428  1  0.55219667  0.86195083  0.32500000  1.0
  Ni  Ni429  1  0.88553000  0.19528417  0.32500000  1.0
  Ni  Ni430  1  0.88553000  0.52861750  0.32500000  1.0
  Ni  Ni431  1  0.88553000  0.86195083  0.32500000  1.0
  Ni  Ni432  1  0.05723500  0.02861750  0.22500000  1.0
  Ni  Ni433  1  0.05723500  0.36195083  0.22500000  1.0
  Ni  Ni434  1  0.05723500  0.69528417  0.22500000  1.0
  Ni  Ni435  1  0.39056833  0.02861750  0.22500000  1.0
  Ni  Ni436  1  0.39056833  0.36195083  0.22500000  1.0
  Ni  Ni437  1  0.39056833  0.69528417  0.22500000  1.0
  Ni  Ni438  1  0.72390167  0.02861750  0.22500000  1.0
  Ni  Ni439  1  0.72390167  0.36195083  0.22500000  1.0
  Ni  Ni440  1  0.72390167  0.69528417  0.22500000  1.0
  Ni  Ni441  1  0.05723500  0.19528417  0.32500000  1.0
  Ni  Ni442  1  0.05723500  0.52861750  0.32500000  1.0
  Ni  Ni443  1  0.05723500  0.86195083  0.32500000  1.0
  Ni  Ni444  1  0.39056833  0.19528417  0.32500000  1.0
  Ni  Ni445  1  0.39056833  0.52861750  0.32500000  1.0
  Ni  Ni446  1  0.39056833  0.86195083  0.32500000  1.0
  Ni  Ni447  1  0.72390167  0.19528417  0.32500000  1.0
  Ni  Ni448  1  0.72390167  0.52861750  0.32500000  1.0
  Ni  Ni449  1  0.72390167  0.86195083  0.32500000  1.0
  Ni  Ni450  1  0.27609833  0.13804917  0.25934100  1.0
  Ni  Ni451  1  0.27609833  0.47138250  0.25934100  1.0
  Ni  Ni452  1  0.27609833  0.80471583  0.25934100  1.0
  Ni  Ni453  1  0.60943167  0.13804917  0.25934100  1.0
  Ni  Ni454  1  0.60943167  0.47138250  0.25934100  1.0
  Ni  Ni455  1  0.60943167  0.80471583  0.25934100  1.0
  Ni  Ni456  1  0.94276500  0.13804917  0.25934100  1.0
  Ni  Ni457  1  0.94276500  0.47138250  0.25934100  1.0
  Ni  Ni458  1  0.94276500  0.80471583  0.25934100  1.0
  Ni  Ni459  1  0.27609833  0.30471583  0.35934100  1.0
  Ni  Ni460  1  0.27609833  0.63804917  0.35934100  1.0
  Ni  Ni461  1  0.27609833  0.97138250  0.35934100  1.0
  Ni  Ni462  1  0.60943167  0.30471583  0.35934100  1.0
  Ni  Ni463  1  0.60943167  0.63804917  0.35934100  1.0
  Ni  Ni464  1  0.60943167  0.97138250  0.35934100  1.0
  Ni  Ni465  1  0.94276500  0.30471583  0.35934100  1.0
  Ni  Ni466  1  0.94276500  0.63804917  0.35934100  1.0
  Ni  Ni467  1  0.94276500  0.97138250  0.35934100  1.0
  Ni  Ni468  1  0.11447000  0.13804917  0.25934100  1.0
  Ni  Ni469  1  0.11447000  0.47138250  0.25934100  1.0
  Ni  Ni470  1  0.11447000  0.80471583  0.25934100  1.0
  Ni  Ni471  1  0.44780333  0.13804917  0.25934100  1.0
  Ni  Ni472  1  0.44780333  0.47138250  0.25934100  1.0
  Ni  Ni473  1  0.44780333  0.80471583  0.25934100  1.0
  Ni  Ni474  1  0.78113667  0.13804917  0.25934100  1.0
  Ni  Ni475  1  0.78113667  0.47138250  0.25934100  1.0
  Ni  Ni476  1  0.78113667  0.80471583  0.25934100  1.0
  Ni  Ni477  1  0.11447000  0.30471583  0.35934100  1.0
  Ni  Ni478  1  0.11447000  0.63804917  0.35934100  1.0
  Ni  Ni479  1  0.11447000  0.97138250  0.35934100  1.0
  Ni  Ni480  1  0.44780333  0.30471583  0.35934100  1.0
  Ni  Ni481  1  0.44780333  0.63804917  0.35934100  1.0
  Ni  Ni482  1  0.44780333  0.97138250  0.35934100  1.0
  Ni  Ni483  1  0.78113667  0.30471583  0.35934100  1.0
  Ni  Ni484  1  0.78113667  0.63804917  0.35934100  1.0
  Ni  Ni485  1  0.78113667  0.97138250  0.35934100  1.0
  Ni  Ni486  1  0.05723500  0.10943167  0.37651150  1.0
  Ni  Ni487  1  0.05723500  0.44276500  0.37651150  1.0
  Ni  Ni488  1  0.05723500  0.77609833  0.37651150  1.0
  Ni  Ni489  1  0.39056833  0.10943167  0.37651150  1.0
  Ni  Ni490  1  0.39056833  0.44276500  0.37651150  1.0
  Ni  Ni491  1  0.39056833  0.77609833  0.37651150  1.0
  Ni  Ni492  1  0.72390167  0.10943167  0.37651150  1.0
  Ni  Ni493  1  0.72390167  0.44276500  0.37651150  1.0
  Ni  Ni494  1  0.72390167  0.77609833  0.37651150  1.0
  Ni  Ni495  1  0.05723500  0.27609833  0.27651150  1.0
  Ni  Ni496  1  0.05723500  0.60943167  0.27651150  1.0
  Ni  Ni497  1  0.05723500  0.94276500  0.27651150  1.0
  Ni  Ni498  1  0.39056833  0.27609833  0.27651150  1.0
  Ni  Ni499  1  0.39056833  0.60943167  0.27651150  1.0
  Ni  Ni500  1  0.39056833  0.94276500  0.27651150  1.0
  Ni  Ni501  1  0.72390167  0.27609833  0.27651150  1.0
  Ni  Ni502  1  0.72390167  0.60943167  0.27651150  1.0
  Ni  Ni503  1  0.72390167  0.94276500  0.27651150  1.0
  Ni  Ni504  1  0.16666667  0.08333333  0.24217050  1.0
  Ni  Ni505  1  0.16666667  0.41666667  0.24217050  1.0
  Ni  Ni506  1  0.16666667  0.75000000  0.24217050  1.0
  Ni  Ni507  1  0.50000000  0.08333333  0.24217050  1.0
  Ni  Ni508  1  0.50000000  0.41666667  0.24217050  1.0
  Ni  Ni509  1  0.50000000  0.75000000  0.24217050  1.0
  Ni  Ni510  1  0.83333333  0.08333333  0.24217050  1.0
  Ni  Ni511  1  0.83333333  0.41666667  0.24217050  1.0
  Ni  Ni512  1  0.83333333  0.75000000  0.24217050  1.0
  Ni  Ni513  1  0.16666667  0.25000000  0.34217050  1.0
  Ni  Ni514  1  0.16666667  0.58333333  0.34217050  1.0
  Ni  Ni515  1  0.16666667  0.91666667  0.34217050  1.0
  Ni  Ni516  1  0.50000000  0.25000000  0.34217050  1.0
  Ni  Ni517  1  0.50000000  0.58333333  0.34217050  1.0
  Ni  Ni518  1  0.50000000  0.91666667  0.34217050  1.0
  Ni  Ni519  1  0.83333333  0.25000000  0.34217050  1.0
  Ni  Ni520  1  0.83333333  0.58333333  0.34217050  1.0
  Ni  Ni521  1  0.83333333  0.91666667  0.34217050  1.0
  Ni  Ni522  1  0.16666667  0.08333333  0.34217050  1.0
  Ni  Ni523  1  0.16666667  0.41666667  0.34217050  1.0
  Ni  Ni524  1  0.16666667  0.75000000  0.34217050  1.0
  Ni  Ni525  1  0.50000000  0.08333333  0.34217050  1.0
  Ni  Ni526  1  0.50000000  0.41666667  0.34217050  1.0
  Ni  Ni527  1  0.50000000  0.75000000  0.34217050  1.0
  Ni  Ni528  1  0.83333333  0.08333333  0.34217050  1.0
  Ni  Ni529  1  0.83333333  0.41666667  0.34217050  1.0
  Ni  Ni530  1  0.83333333  0.75000000  0.34217050  1.0
  Ni  Ni531  1  0.16666667  0.25000000  0.24217050  1.0
  Ni  Ni532  1  0.16666667  0.58333333  0.24217050  1.0
  Ni  Ni533  1  0.16666667  0.91666667  0.24217050  1.0
  Ni  Ni534  1  0.50000000  0.25000000  0.24217050  1.0
  Ni  Ni535  1  0.50000000  0.58333333  0.24217050  1.0
  Ni  Ni536  1  0.50000000  0.91666667  0.24217050  1.0
  Ni  Ni537  1  0.83333333  0.25000000  0.24217050  1.0
  Ni  Ni538  1  0.83333333  0.58333333  0.24217050  1.0
  Ni  Ni539  1  0.83333333  0.91666667  0.24217050  1.0
  Ni  Ni540  1  0.00000000  0.08333333  0.34217050  1.0
  Ni  Ni541  1  0.00000000  0.41666667  0.34217050  1.0
  Ni  Ni542  1  0.00000000  0.75000000  0.34217050  1.0
  Ni  Ni543  1  0.33333333  0.08333333  0.34217050  1.0
  Ni  Ni544  1  0.33333333  0.41666667  0.34217050  1.0
  Ni  Ni545  1  0.33333333  0.75000000  0.34217050  1.0
  Ni  Ni546  1  0.66666667  0.08333333  0.34217050  1.0
  Ni  Ni547  1  0.66666667  0.41666667  0.34217050  1.0
  Ni  Ni548  1  0.66666667  0.75000000  0.34217050  1.0
  Ni  Ni549  1  0.00000000  0.25000000  0.24217050  1.0
  Ni  Ni550  1  0.00000000  0.58333333  0.24217050  1.0
  Ni  Ni551  1  0.00000000  0.91666667  0.24217050  1.0
  Ni  Ni552  1  0.33333333  0.25000000  0.24217050  1.0
  Ni  Ni553  1  0.33333333  0.58333333  0.24217050  1.0
  Ni  Ni554  1  0.33333333  0.91666667  0.24217050  1.0
  Ni  Ni555  1  0.66666667  0.25000000  0.24217050  1.0
  Ni  Ni556  1  0.66666667  0.58333333  0.24217050  1.0
  Ni  Ni557  1  0.66666667  0.91666667  0.24217050  1.0
  Ni  Ni558  1  0.16666667  0.16666667  0.39217050  1.0
  Ni  Ni559  1  0.16666667  0.50000000  0.39217050  1.0
  Ni  Ni560  1  0.16666667  0.83333333  0.39217050  1.0
  Ni  Ni561  1  0.50000000  0.16666667  0.39217050  1.0
  Ni  Ni562  1  0.50000000  0.50000000  0.39217050  1.0
  Ni  Ni563  1  0.50000000  0.83333333  0.39217050  1.0
  Ni  Ni564  1  0.83333333  0.16666667  0.39217050  1.0
  Ni  Ni565  1  0.83333333  0.50000000  0.39217050  1.0
  Ni  Ni566  1  0.83333333  0.83333333  0.39217050  1.0
  Ni  Ni567  1  0.16666667  0.00000000  0.29217050  1.0
  Ni  Ni568  1  0.16666667  0.33333333  0.29217050  1.0
  Ni  Ni569  1  0.16666667  0.66666667  0.29217050  1.0
  Ni  Ni570  1  0.50000000  0.00000000  0.29217050  1.0
  Ni  Ni571  1  0.50000000  0.33333333  0.29217050  1.0
  Ni  Ni572  1  0.50000000  0.66666667  0.29217050  1.0
  Ni  Ni573  1  0.83333333  0.00000000  0.29217050  1.0
  Ni  Ni574  1  0.83333333  0.33333333  0.29217050  1.0
  Ni  Ni575  1  0.83333333  0.66666667  0.29217050  1.0
