# generated using pymatgen
data_TiNi
_symmetry_space_group_name_H-M   'P 1'
_cell_length_a   21.30691947
_cell_length_b   18.08940318
_cell_length_c   36.49509000
_cell_angle_alpha   90.00000000
_cell_angle_beta   55.18401114
_cell_angle_gamma   58.68713351
_symmetry_Int_Tables_number   1
_chemical_formula_structural   TiNi
_chemical_formula_sum   'Ti144 Ni144'
_cell_volume   8939.83855801
_cell_formula_units_Z   144
loop_
 _symmetry_equiv_pos_site_id
 _symmetry_equiv_pos_as_xyz
  1  'x, y, z'
loop_
 _atom_site_type_symbol
 _atom_site_label
 _atom_site_symmetry_multiplicity
 _atom_site_fract_x
 _atom_site_fract_y
 _atom_site_fract_z
 _atom_site_occupancy
  Ti  Ti0  1  0.01847617  0.09488667  0.07717461  1.0
  Ti  Ti1  1  0.01847617  0.42822000  0.07717461  1.0
  Ti  Ti2  1  0.01847617  0.76155333  0.07717461  1.0
  Ti  Ti3  1  0.35180950  0.09488667  0.07717461  1.0
  Ti  Ti4  1  0.35180950  0.42822000  0.07717461  1.0
  Ti  Ti5  1  0.35180950  0.76155333  0.07717461  1.0
  Ti  Ti6  1  0.68514283  0.09488667  0.07717461  1.0
  Ti  Ti7  1  0.68514283  0.42822000  0.07717461  1.0
  Ti  Ti8  1  0.68514283  0.76155333  0.07717461  1.0
  Ti  Ti9  1  0.18514283  0.09488667  0.02161906  1.0
  Ti  Ti10  1  0.18514283  0.42822000  0.02161906  1.0
  Ti  Ti11  1  0.18514283  0.76155333  0.02161906  1.0
  Ti  Ti12  1  0.51847617  0.09488667  0.02161906  1.0
  Ti  Ti13  1  0.51847617  0.42822000  0.02161906  1.0
  Ti  Ti14  1  0.51847617  0.76155333  0.02161906  1.0
  Ti  Ti15  1  0.85180950  0.09488667  0.02161906  1.0
  Ti  Ti16  1  0.85180950  0.42822000  0.02161906  1.0
  Ti  Ti17  1  0.85180950  0.76155333  0.02161906  1.0
  Ti  Ti18  1  0.31485717  0.23844667  0.03393650  1.0
  Ti  Ti19  1  0.31485717  0.57178000  0.03393650  1.0
  Ti  Ti20  1  0.31485717  0.90511333  0.03393650  1.0
  Ti  Ti21  1  0.64819050  0.23844667  0.03393650  1.0
  Ti  Ti22  1  0.64819050  0.57178000  0.03393650  1.0
  Ti  Ti23  1  0.64819050  0.90511333  0.03393650  1.0
  Ti  Ti24  1  0.98152383  0.23844667  0.03393650  1.0
  Ti  Ti25  1  0.98152383  0.57178000  0.03393650  1.0
  Ti  Ti26  1  0.98152383  0.90511333  0.03393650  1.0
  Ti  Ti27  1  0.14819050  0.23844667  0.08949206  1.0
  Ti  Ti28  1  0.14819050  0.57178000  0.08949206  1.0
  Ti  Ti29  1  0.14819050  0.90511333  0.08949206  1.0
  Ti  Ti30  1  0.48152383  0.23844667  0.08949206  1.0
  Ti  Ti31  1  0.48152383  0.57178000  0.08949206  1.0
  Ti  Ti32  1  0.48152383  0.90511333  0.08949206  1.0
  Ti  Ti33  1  0.81485717  0.23844667  0.08949206  1.0
  Ti  Ti34  1  0.81485717  0.57178000  0.08949206  1.0
  Ti  Ti35  1  0.81485717  0.90511333  0.08949206  1.0
  Ni  Ni36  1  0.20477100  0.27600833  0.01507633  1.0
  Ni  Ni37  1  0.20477100  0.60934167  0.01507633  1.0
  Ni  Ni38  1  0.20477100  0.94267500  0.01507633  1.0
  Ni  Ni39  1  0.53810433  0.27600833  0.01507633  1.0
  Ni  Ni40  1  0.53810433  0.60934167  0.01507633  1.0
  Ni  Ni41  1  0.53810433  0.94267500  0.01507633  1.0
  Ni  Ni42  1  0.87143767  0.27600833  0.01507633  1.0
  Ni  Ni43  1  0.87143767  0.60934167  0.01507633  1.0
  Ni  Ni44  1  0.87143767  0.94267500  0.01507633  1.0
  Ni  Ni45  1  0.03810433  0.27600833  0.07063189  1.0
  Ni  Ni46  1  0.03810433  0.60934167  0.07063189  1.0
  Ni  Ni47  1  0.03810433  0.94267500  0.07063189  1.0
  Ni  Ni48  1  0.37143767  0.27600833  0.07063189  1.0
  Ni  Ni49  1  0.37143767  0.60934167  0.07063189  1.0
  Ni  Ni50  1  0.37143767  0.94267500  0.07063189  1.0
  Ni  Ni51  1  0.70477100  0.27600833  0.07063189  1.0
  Ni  Ni52  1  0.70477100  0.60934167  0.07063189  1.0
  Ni  Ni53  1  0.70477100  0.94267500  0.07063189  1.0
  Ni  Ni54  1  0.12856233  0.05732500  0.09603478  1.0
  Ni  Ni55  1  0.12856233  0.39065833  0.09603478  1.0
  Ni  Ni56  1  0.12856233  0.72399167  0.09603478  1.0
  Ni  Ni57  1  0.46189567  0.05732500  0.09603478  1.0
  Ni  Ni58  1  0.46189567  0.39065833  0.09603478  1.0
  Ni  Ni59  1  0.46189567  0.72399167  0.09603478  1.0
  Ni  Ni60  1  0.79522900  0.05732500  0.09603478  1.0
  Ni  Ni61  1  0.79522900  0.39065833  0.09603478  1.0
  Ni  Ni62  1  0.79522900  0.72399167  0.09603478  1.0
  Ni  Ni63  1  0.29522900  0.05732500  0.04047922  1.0
  Ni  Ni64  1  0.29522900  0.39065833  0.04047922  1.0
  Ni  Ni65  1  0.29522900  0.72399167  0.04047922  1.0
  Ni  Ni66  1  0.62856233  0.05732500  0.04047922  1.0
  Ni  Ni67  1  0.62856233  0.39065833  0.04047922  1.0
  Ni  Ni68  1  0.62856233  0.72399167  0.04047922  1.0
  Ni  Ni69  1  0.96189567  0.05732500  0.04047922  1.0
  Ni  Ni70  1  0.96189567  0.39065833  0.04047922  1.0
  Ni  Ni71  1  0.96189567  0.72399167  0.04047922  1.0
  Ti  Ti72  1  0.01847617  0.09488667  0.18828572  1.0
  Ti  Ti73  1  0.01847617  0.42822000  0.18828572  1.0
  Ti  Ti74  1  0.01847617  0.76155333  0.18828572  1.0
  Ti  Ti75  1  0.35180950  0.09488667  0.18828572  1.0
  Ti  Ti76  1  0.35180950  0.42822000  0.18828572  1.0
  Ti  Ti77  1  0.35180950  0.76155333  0.18828572  1.0
  Ti  Ti78  1  0.68514283  0.09488667  0.18828572  1.0
  Ti  Ti79  1  0.68514283  0.42822000  0.18828572  1.0
  Ti  Ti80  1  0.68514283  0.76155333  0.18828572  1.0
  Ti  Ti81  1  0.18514283  0.09488667  0.13273017  1.0
  Ti  Ti82  1  0.18514283  0.42822000  0.13273017  1.0
  Ti  Ti83  1  0.18514283  0.76155333  0.13273017  1.0
  Ti  Ti84  1  0.51847617  0.09488667  0.13273017  1.0
  Ti  Ti85  1  0.51847617  0.42822000  0.13273017  1.0
  Ti  Ti86  1  0.51847617  0.76155333  0.13273017  1.0
  Ti  Ti87  1  0.85180950  0.09488667  0.13273017  1.0
  Ti  Ti88  1  0.85180950  0.42822000  0.13273017  1.0
  Ti  Ti89  1  0.85180950  0.76155333  0.13273017  1.0
  Ti  Ti90  1  0.31485717  0.23844667  0.14504761  1.0
  Ti  Ti91  1  0.31485717  0.57178000  0.14504761  1.0
  Ti  Ti92  1  0.31485717  0.90511333  0.14504761  1.0
  Ti  Ti93  1  0.64819050  0.23844667  0.14504761  1.0
  Ti  Ti94  1  0.64819050  0.57178000  0.14504761  1.0
  Ti  Ti95  1  0.64819050  0.90511333  0.14504761  1.0
  Ti  Ti96  1  0.98152383  0.23844667  0.14504761  1.0
  Ti  Ti97  1  0.98152383  0.57178000  0.14504761  1.0
  Ti  Ti98  1  0.98152383  0.90511333  0.14504761  1.0
  Ti  Ti99  1  0.14819050  0.23844667  0.20060317  1.0
  Ti  Ti100  1  0.14819050  0.57178000  0.20060317  1.0
  Ti  Ti101  1  0.14819050  0.90511333  0.20060317  1.0
  Ti  Ti102  1  0.48152383  0.23844667  0.20060317  1.0
  Ti  Ti103  1  0.48152383  0.57178000  0.20060317  1.0
  Ti  Ti104  1  0.48152383  0.90511333  0.20060317  1.0
  Ti  Ti105  1  0.81485717  0.23844667  0.20060317  1.0
  Ti  Ti106  1  0.81485717  0.57178000  0.20060317  1.0
  Ti  Ti107  1  0.81485717  0.90511333  0.20060317  1.0
  Ni  Ni108  1  0.20477100  0.27600833  0.12618744  1.0
  Ni  Ni109  1  0.20477100  0.60934167  0.12618744  1.0
  Ni  Ni110  1  0.20477100  0.94267500  0.12618744  1.0
  Ni  Ni111  1  0.53810433  0.27600833  0.12618744  1.0
  Ni  Ni112  1  0.53810433  0.60934167  0.12618744  1.0
  Ni  Ni113  1  0.53810433  0.94267500  0.12618744  1.0
  Ni  Ni114  1  0.87143767  0.27600833  0.12618744  1.0
  Ni  Ni115  1  0.87143767  0.60934167  0.12618744  1.0
  Ni  Ni116  1  0.87143767  0.94267500  0.12618744  1.0
  Ni  Ni117  1  0.03810433  0.27600833  0.18174300  1.0
  Ni  Ni118  1  0.03810433  0.60934167  0.18174300  1.0
  Ni  Ni119  1  0.03810433  0.94267500  0.18174300  1.0
  Ni  Ni120  1  0.37143767  0.27600833  0.18174300  1.0
  Ni  Ni121  1  0.37143767  0.60934167  0.18174300  1.0
  Ni  Ni122  1  0.37143767  0.94267500  0.18174300  1.0
  Ni  Ni123  1  0.70477100  0.27600833  0.18174300  1.0
  Ni  Ni124  1  0.70477100  0.60934167  0.18174300  1.0
  Ni  Ni125  1  0.70477100  0.94267500  0.18174300  1.0
  Ni  Ni126  1  0.12856233  0.05732500  0.20714589  1.0
  Ni  Ni127  1  0.12856233  0.39065833  0.20714589  1.0
  Ni  Ni128  1  0.12856233  0.72399167  0.20714589  1.0
  Ni  Ni129  1  0.46189567  0.05732500  0.20714589  1.0
  Ni  Ni130  1  0.46189567  0.39065833  0.20714589  1.0
  Ni  Ni131  1  0.46189567  0.72399167  0.20714589  1.0
  Ni  Ni132  1  0.79522900  0.05732500  0.20714589  1.0
  Ni  Ni133  1  0.79522900  0.39065833  0.20714589  1.0
  Ni  Ni134  1  0.79522900  0.72399167  0.20714589  1.0
  Ni  Ni135  1  0.29522900  0.05732500  0.15159033  1.0
  Ni  Ni136  1  0.29522900  0.39065833  0.15159033  1.0
  Ni  Ni137  1  0.29522900  0.72399167  0.15159033  1.0
  Ni  Ni138  1  0.62856233  0.05732500  0.15159033  1.0
  Ni  Ni139  1  0.62856233  0.39065833  0.15159033  1.0
  Ni  Ni140  1  0.62856233  0.72399167  0.15159033  1.0
  Ni  Ni141  1  0.96189567  0.05732500  0.15159033  1.0
  Ni  Ni142  1  0.96189567  0.39065833  0.15159033  1.0
  Ni  Ni143  1  0.96189567  0.72399167  0.15159033  1.0
  Ti  Ti144  1  0.01847617  0.09488667  0.29939683  1.0
  Ti  Ti145  1  0.01847617  0.42822000  0.29939683  1.0
  Ti  Ti146  1  0.01847617  0.76155333  0.29939683  1.0
  Ti  Ti147  1  0.35180950  0.09488667  0.29939683  1.0
  Ti  Ti148  1  0.35180950  0.42822000  0.29939683  1.0
  Ti  Ti149  1  0.35180950  0.76155333  0.29939683  1.0
  Ti  Ti150  1  0.68514283  0.09488667  0.29939683  1.0
  Ti  Ti151  1  0.68514283  0.42822000  0.29939683  1.0
  Ti  Ti152  1  0.68514283  0.76155333  0.29939683  1.0
  Ti  Ti153  1  0.18514283  0.09488667  0.24384128  1.0
  Ti  Ti154  1  0.18514283  0.42822000  0.24384128  1.0
  Ti  Ti155  1  0.18514283  0.76155333  0.24384128  1.0
  Ti  Ti156  1  0.51847617  0.09488667  0.24384128  1.0
  Ti  Ti157  1  0.51847617  0.42822000  0.24384128  1.0
  Ti  Ti158  1  0.51847617  0.76155333  0.24384128  1.0
  Ti  Ti159  1  0.85180950  0.09488667  0.24384128  1.0
  Ti  Ti160  1  0.85180950  0.42822000  0.24384128  1.0
  Ti  Ti161  1  0.85180950  0.76155333  0.24384128  1.0
  Ti  Ti162  1  0.31485717  0.23844667  0.25615872  1.0
  Ti  Ti163  1  0.31485717  0.57178000  0.25615872  1.0
  Ti  Ti164  1  0.31485717  0.90511333  0.25615872  1.0
  Ti  Ti165  1  0.64819050  0.23844667  0.25615872  1.0
  Ti  Ti166  1  0.64819050  0.57178000  0.25615872  1.0
  Ti  Ti167  1  0.64819050  0.90511333  0.25615872  1.0
  Ti  Ti168  1  0.98152383  0.23844667  0.25615872  1.0
  Ti  Ti169  1  0.98152383  0.57178000  0.25615872  1.0
  Ti  Ti170  1  0.98152383  0.90511333  0.25615872  1.0
  Ti  Ti171  1  0.14819050  0.23844667  0.31171428  1.0
  Ti  Ti172  1  0.14819050  0.57178000  0.31171428  1.0
  Ti  Ti173  1  0.14819050  0.90511333  0.31171428  1.0
  Ti  Ti174  1  0.48152383  0.23844667  0.31171428  1.0
  Ti  Ti175  1  0.48152383  0.57178000  0.31171428  1.0
  Ti  Ti176  1  0.48152383  0.90511333  0.31171428  1.0
  Ti  Ti177  1  0.81485717  0.23844667  0.31171428  1.0
  Ti  Ti178  1  0.81485717  0.57178000  0.31171428  1.0
  Ti  Ti179  1  0.81485717  0.90511333  0.31171428  1.0
  Ni  Ni180  1  0.20477100  0.27600833  0.23729856  1.0
  Ni  Ni181  1  0.20477100  0.60934167  0.23729856  1.0
  Ni  Ni182  1  0.20477100  0.94267500  0.23729856  1.0
  Ni  Ni183  1  0.53810433  0.27600833  0.23729856  1.0
  Ni  Ni184  1  0.53810433  0.60934167  0.23729856  1.0
  Ni  Ni185  1  0.53810433  0.94267500  0.23729856  1.0
  Ni  Ni186  1  0.87143767  0.27600833  0.23729856  1.0
  Ni  Ni187  1  0.87143767  0.60934167  0.23729856  1.0
  Ni  Ni188  1  0.87143767  0.94267500  0.23729856  1.0
  Ni  Ni189  1  0.03810433  0.27600833  0.29285411  1.0
  Ni  Ni190  1  0.03810433  0.60934167  0.29285411  1.0
  Ni  Ni191  1  0.03810433  0.94267500  0.29285411  1.0
  Ni  Ni192  1  0.37143767  0.27600833  0.29285411  1.0
  Ni  Ni193  1  0.37143767  0.60934167  0.29285411  1.0
  Ni  Ni194  1  0.37143767  0.94267500  0.29285411  1.0
  Ni  Ni195  1  0.70477100  0.27600833  0.29285411  1.0
  Ni  Ni196  1  0.70477100  0.60934167  0.29285411  1.0
  Ni  Ni197  1  0.70477100  0.94267500  0.29285411  1.0
  Ni  Ni198  1  0.12856233  0.05732500  0.31825700  1.0
  Ni  Ni199  1  0.12856233  0.39065833  0.31825700  1.0
  Ni  Ni200  1  0.12856233  0.72399167  0.31825700  1.0
  Ni  Ni201  1  0.46189567  0.05732500  0.31825700  1.0
  Ni  Ni202  1  0.46189567  0.39065833  0.31825700  1.0
  Ni  Ni203  1  0.46189567  0.72399167  0.31825700  1.0
  Ni  Ni204  1  0.79522900  0.05732500  0.31825700  1.0
  Ni  Ni205  1  0.79522900  0.39065833  0.31825700  1.0
  Ni  Ni206  1  0.79522900  0.72399167  0.31825700  1.0
  Ni  Ni207  1  0.29522900  0.05732500  0.26270144  1.0
  Ni  Ni208  1  0.29522900  0.39065833  0.26270144  1.0
  Ni  Ni209  1  0.29522900  0.72399167  0.26270144  1.0
  Ni  Ni210  1  0.62856233  0.05732500  0.26270144  1.0
  Ni  Ni211  1  0.62856233  0.39065833  0.26270144  1.0
  Ni  Ni212  1  0.62856233  0.72399167  0.26270144  1.0
  Ni  Ni213  1  0.96189567  0.05732500  0.26270144  1.0
  Ni  Ni214  1  0.96189567  0.39065833  0.26270144  1.0
  Ni  Ni215  1  0.96189567  0.72399167  0.26270144  1.0
  Ti  Ti216  1  0.01847617  0.09488667  0.41050794  1.0
  Ti  Ti217  1  0.01847617  0.42822000  0.41050794  1.0
  Ti  Ti218  1  0.01847617  0.76155333  0.41050794  1.0
  Ti  Ti219  1  0.35180950  0.09488667  0.41050794  1.0
  Ti  Ti220  1  0.35180950  0.42822000  0.41050794  1.0
  Ti  Ti221  1  0.35180950  0.76155333  0.41050794  1.0
  Ti  Ti222  1  0.68514283  0.09488667  0.41050794  1.0
  Ti  Ti223  1  0.68514283  0.42822000  0.41050794  1.0
  Ti  Ti224  1  0.68514283  0.76155333  0.41050794  1.0
  Ti  Ti225  1  0.18514283  0.09488667  0.35495239  1.0
  Ti  Ti226  1  0.18514283  0.42822000  0.35495239  1.0
  Ti  Ti227  1  0.18514283  0.76155333  0.35495239  1.0
  Ti  Ti228  1  0.51847617  0.09488667  0.35495239  1.0
  Ti  Ti229  1  0.51847617  0.42822000  0.35495239  1.0
  Ti  Ti230  1  0.51847617  0.76155333  0.35495239  1.0
  Ti  Ti231  1  0.85180950  0.09488667  0.35495239  1.0
  Ti  Ti232  1  0.85180950  0.42822000  0.35495239  1.0
  Ti  Ti233  1  0.85180950  0.76155333  0.35495239  1.0
  Ti  Ti234  1  0.31485717  0.23844667  0.36726983  1.0
  Ti  Ti235  1  0.31485717  0.57178000  0.36726983  1.0
  Ti  Ti236  1  0.31485717  0.90511333  0.36726983  1.0
  Ti  Ti237  1  0.64819050  0.23844667  0.36726983  1.0
  Ti  Ti238  1  0.64819050  0.57178000  0.36726983  1.0
  Ti  Ti239  1  0.64819050  0.90511333  0.36726983  1.0
  Ti  Ti240  1  0.98152383  0.23844667  0.36726983  1.0
  Ti  Ti241  1  0.98152383  0.57178000  0.36726983  1.0
  Ti  Ti242  1  0.98152383  0.90511333  0.36726983  1.0
  Ti  Ti243  1  0.14819050  0.23844667  0.42282539  1.0
  Ti  Ti244  1  0.14819050  0.57178000  0.42282539  1.0
  Ti  Ti245  1  0.14819050  0.90511333  0.42282539  1.0
  Ti  Ti246  1  0.48152383  0.23844667  0.42282539  1.0
  Ti  Ti247  1  0.48152383  0.57178000  0.42282539  1.0
  Ti  Ti248  1  0.48152383  0.90511333  0.42282539  1.0
  Ti  Ti249  1  0.81485717  0.23844667  0.42282539  1.0
  Ti  Ti250  1  0.81485717  0.57178000  0.42282539  1.0
  Ti  Ti251  1  0.81485717  0.90511333  0.42282539  1.0
  Ni  Ni252  1  0.20477100  0.27600833  0.34840967  1.0
  Ni  Ni253  1  0.20477100  0.60934167  0.34840967  1.0
  Ni  Ni254  1  0.20477100  0.94267500  0.34840967  1.0
  Ni  Ni255  1  0.53810433  0.27600833  0.34840967  1.0
  Ni  Ni256  1  0.53810433  0.60934167  0.34840967  1.0
  Ni  Ni257  1  0.53810433  0.94267500  0.34840967  1.0
  Ni  Ni258  1  0.87143767  0.27600833  0.34840967  1.0
  Ni  Ni259  1  0.87143767  0.60934167  0.34840967  1.0
  Ni  Ni260  1  0.87143767  0.94267500  0.34840967  1.0
  Ni  Ni261  1  0.03810433  0.27600833  0.40396522  1.0
  Ni  Ni262  1  0.03810433  0.60934167  0.40396522  1.0
  Ni  Ni263  1  0.03810433  0.94267500  0.40396522  1.0
  Ni  Ni264  1  0.37143767  0.27600833  0.40396522  1.0
  Ni  Ni265  1  0.37143767  0.60934167  0.40396522  1.0
  Ni  Ni266  1  0.37143767  0.94267500  0.40396522  1.0
  Ni  Ni267  1  0.70477100  0.27600833  0.40396522  1.0
  Ni  Ni268  1  0.70477100  0.60934167  0.40396522  1.0
  Ni  Ni269  1  0.70477100  0.94267500  0.40396522  1.0
  Ni  Ni270  1  0.12856233  0.05732500  0.42936811  1.0
  Ni  Ni271  1  0.12856233  0.39065833  0.42936811  1.0
  Ni  Ni272  1  0.12856233  0.72399167  0.42936811  1.0
  Ni  Ni273  1  0.46189567  0.05732500  0.42936811  1.0
  Ni  Ni274  1  0.46189567  0.39065833  0.42936811  1.0
  Ni  Ni275  1  0.46189567  0.72399167  0.42936811  1.0
  Ni  Ni276  1  0.79522900  0.05732500  0.42936811  1.0
  Ni  Ni277  1  0.79522900  0.39065833  0.42936811  1.0
  Ni  Ni278  1  0.79522900  0.72399167  0.42936811  1.0
  Ni  Ni279  1  0.29522900  0.05732500  0.37381256  1.0
  Ni  Ni280  1  0.29522900  0.39065833  0.37381256  1.0
  Ni  Ni281  1  0.29522900  0.72399167  0.37381256  1.0
  Ni  Ni282  1  0.62856233  0.05732500  0.37381256  1.0
  Ni  Ni283  1  0.62856233  0.39065833  0.37381256  1.0
  Ni  Ni284  1  0.62856233  0.72399167  0.37381256  1.0
  Ni  Ni285  1  0.96189567  0.05732500  0.37381256  1.0
  Ni  Ni286  1  0.96189567  0.39065833  0.37381256  1.0
  Ni  Ni287  1  0.96189567  0.72399167  0.37381256  1.0
