# generated using pymatgen
data_TiNi
_symmetry_space_group_name_H-M   'P 1'
_cell_length_a   12.69922060
_cell_length_b   15.55330530
_cell_length_c   29.32759372
_cell_angle_alpha   90.00000000
_cell_angle_beta   90.00000000
_cell_angle_gamma   90.00000000
_symmetry_Int_Tables_number   1
_chemical_formula_structural   TiNi
_chemical_formula_sum   'Ti90 Ni90'
_cell_volume   5792.63542072
_cell_formula_units_Z   90
loop_
 _symmetry_equiv_pos_site_id
 _symmetry_equiv_pos_as_xyz
  1  'x, y, z'
loop_
 _atom_site_type_symbol
 _atom_site_label
 _atom_site_symmetry_multiplicity
 _atom_site_fract_x
 _atom_site_fract_y
 _atom_site_fract_z
 _atom_site_occupancy
  Ni  Ni0  1  0.00000000  0.08333333  0.93750000  1.0
  Ni  Ni1  1  0.00000000  0.41666667  0.93750000  1.0
  Ni  Ni2  1  0.00000000  0.75000000  0.93750000  1.0
  Ni  Ni3  1  0.33333333  0.08333333  0.93750000  1.0
  Ni  Ni4  1  0.33333333  0.41666667  0.93750000  1.0
  Ni  Ni5  1  0.33333333  0.75000000  0.93750000  1.0
  Ni  Ni6  1  0.66666667  0.08333333  0.93750000  1.0
  Ni  Ni7  1  0.66666667  0.41666667  0.93750000  1.0
  Ni  Ni8  1  0.66666667  0.75000000  0.93750000  1.0
  Ni  Ni9  1  0.16666667  0.30555556  0.97916667  1.0
  Ni  Ni10  1  0.16666667  0.63888889  0.97916667  1.0
  Ni  Ni11  1  0.16666667  0.97222222  0.97916667  1.0
  Ni  Ni12  1  0.50000000  0.30555556  0.97916667  1.0
  Ni  Ni13  1  0.50000000  0.63888889  0.97916667  1.0
  Ni  Ni14  1  0.50000000  0.97222222  0.97916667  1.0
  Ni  Ni15  1  0.83333333  0.30555556  0.97916667  1.0
  Ni  Ni16  1  0.83333333  0.63888889  0.97916667  1.0
  Ni  Ni17  1  0.83333333  0.97222222  0.97916667  1.0
  Ni  Ni18  1  0.00000000  0.30555556  0.85416667  1.0
  Ni  Ni19  1  0.00000000  0.63888889  0.85416667  1.0
  Ni  Ni20  1  0.00000000  0.97222222  0.85416667  1.0
  Ni  Ni21  1  0.33333333  0.30555556  0.85416667  1.0
  Ni  Ni22  1  0.33333333  0.63888889  0.85416667  1.0
  Ni  Ni23  1  0.33333333  0.97222222  0.85416667  1.0
  Ni  Ni24  1  0.66666667  0.30555556  0.85416667  1.0
  Ni  Ni25  1  0.66666667  0.63888889  0.85416667  1.0
  Ni  Ni26  1  0.66666667  0.97222222  0.85416667  1.0
  Ni  Ni27  1  0.16666667  0.19444444  0.89583333  1.0
  Ni  Ni28  1  0.16666667  0.52777778  0.89583333  1.0
  Ni  Ni29  1  0.16666667  0.86111111  0.89583333  1.0
  Ni  Ni30  1  0.50000000  0.19444444  0.89583333  1.0
  Ni  Ni31  1  0.50000000  0.52777778  0.89583333  1.0
  Ni  Ni32  1  0.50000000  0.86111111  0.89583333  1.0
  Ni  Ni33  1  0.83333333  0.19444444  0.89583333  1.0
  Ni  Ni34  1  0.83333333  0.52777778  0.89583333  1.0
  Ni  Ni35  1  0.83333333  0.86111111  0.89583333  1.0
  Ni  Ni36  1  0.00000000  0.19444444  0.77083333  1.0
  Ni  Ni37  1  0.00000000  0.52777778  0.77083333  1.0
  Ni  Ni38  1  0.00000000  0.86111111  0.77083333  1.0
  Ni  Ni39  1  0.33333333  0.19444444  0.77083333  1.0
  Ni  Ni40  1  0.33333333  0.52777778  0.77083333  1.0
  Ni  Ni41  1  0.33333333  0.86111111  0.77083333  1.0
  Ni  Ni42  1  0.66666667  0.19444444  0.77083333  1.0
  Ni  Ni43  1  0.66666667  0.52777778  0.77083333  1.0
  Ni  Ni44  1  0.66666667  0.86111111  0.77083333  1.0
  Ni  Ni45  1  0.16666667  0.08333333  0.81250000  1.0
  Ni  Ni46  1  0.16666667  0.41666667  0.81250000  1.0
  Ni  Ni47  1  0.16666667  0.75000000  0.81250000  1.0
  Ni  Ni48  1  0.50000000  0.08333333  0.81250000  1.0
  Ni  Ni49  1  0.50000000  0.41666667  0.81250000  1.0
  Ni  Ni50  1  0.50000000  0.75000000  0.81250000  1.0
  Ni  Ni51  1  0.83333333  0.08333333  0.81250000  1.0
  Ni  Ni52  1  0.83333333  0.41666667  0.81250000  1.0
  Ni  Ni53  1  0.83333333  0.75000000  0.81250000  1.0
  Ni  Ni54  1  0.33333333  0.08333333  0.68750000  1.0
  Ni  Ni55  1  0.33333333  0.41666667  0.68750000  1.0
  Ni  Ni56  1  0.33333333  0.75000000  0.68750000  1.0
  Ni  Ni57  1  0.66666667  0.08333333  0.68750000  1.0
  Ni  Ni58  1  0.66666667  0.41666667  0.68750000  1.0
  Ni  Ni59  1  0.66666667  0.75000000  0.68750000  1.0
  Ni  Ni60  1  0.00000000  0.08333333  0.68750000  1.0
  Ni  Ni61  1  1.00000000  0.41666667  0.68750000  1.0
  Ni  Ni62  1  0.00000000  0.75000000  0.68750000  1.0
  Ni  Ni63  1  0.16666667  0.30555556  0.72916667  1.0
  Ni  Ni64  1  0.16666667  0.63888889  0.72916667  1.0
  Ni  Ni65  1  0.16666667  0.97222222  0.72916667  1.0
  Ni  Ni66  1  0.50000000  0.30555556  0.72916667  1.0
  Ni  Ni67  1  0.50000000  0.63888889  0.72916667  1.0
  Ni  Ni68  1  0.50000000  0.97222222  0.72916667  1.0
  Ni  Ni69  1  0.83333333  0.30555556  0.72916667  1.0
  Ni  Ni70  1  0.83333333  0.63888889  0.72916667  1.0
  Ni  Ni71  1  0.83333333  0.97222222  0.72916667  1.0
  Ni  Ni72  1  0.33333333  0.30555556  0.60416667  1.0
  Ni  Ni73  1  0.33333333  0.63888889  0.60416667  1.0
  Ni  Ni74  1  0.33333333  0.97222222  0.60416667  1.0
  Ni  Ni75  1  0.66666667  0.30555556  0.60416667  1.0
  Ni  Ni76  1  0.66666667  0.63888889  0.60416667  1.0
  Ni  Ni77  1  0.66666667  0.97222222  0.60416667  1.0
  Ni  Ni78  1  0.00000000  0.30555556  0.60416667  1.0
  Ni  Ni79  1  0.00000000  0.63888889  0.60416667  1.0
  Ni  Ni80  1  0.00000000  0.97222222  0.60416667  1.0
  Ni  Ni81  1  0.16666667  0.19444444  0.64583333  1.0
  Ni  Ni82  1  0.16666667  0.52777778  0.64583333  1.0
  Ni  Ni83  1  0.16666667  0.86111111  0.64583333  1.0
  Ni  Ni84  1  0.50000000  0.19444444  0.64583333  1.0
  Ni  Ni85  1  0.50000000  0.52777778  0.64583333  1.0
  Ni  Ni86  1  0.50000000  0.86111111  0.64583333  1.0
  Ni  Ni87  1  0.83333333  0.19444444  0.64583333  1.0
  Ni  Ni88  1  0.83333333  0.52777778  0.64583333  1.0
  Ni  Ni89  1  0.83333333  0.86111111  0.64583333  1.0
  Ti  Ti90  1  0.33333333  0.25000000  0.93750000  1.0
  Ti  Ti91  1  0.33333333  0.58333333  0.93750000  1.0
  Ti  Ti92  1  0.33333333  0.91666667  0.93750000  1.0
  Ti  Ti93  1  0.66666667  0.25000000  0.93750000  1.0
  Ti  Ti94  1  0.66666667  0.58333333  0.93750000  1.0
  Ti  Ti95  1  0.66666667  0.91666667  0.93750000  1.0
  Ti  Ti96  1  0.00000000  0.25000000  0.93750000  1.0
  Ti  Ti97  1  0.00000000  0.58333333  0.93750000  1.0
  Ti  Ti98  1  0.00000000  0.91666667  0.93750000  1.0
  Ti  Ti99  1  0.16666667  0.13888889  0.97916667  1.0
  Ti  Ti100  1  0.16666667  0.47222222  0.97916667  1.0
  Ti  Ti101  1  0.16666667  0.80555556  0.97916667  1.0
  Ti  Ti102  1  0.50000000  0.13888889  0.97916667  1.0
  Ti  Ti103  1  0.50000000  0.47222222  0.97916667  1.0
  Ti  Ti104  1  0.50000000  0.80555556  0.97916667  1.0
  Ti  Ti105  1  0.83333333  0.13888889  0.97916667  1.0
  Ti  Ti106  1  0.83333333  0.47222222  0.97916667  1.0
  Ti  Ti107  1  0.83333333  0.80555556  0.97916667  1.0
  Ti  Ti108  1  0.33333333  0.13888889  0.85416667  1.0
  Ti  Ti109  1  0.33333333  0.47222222  0.85416667  1.0
  Ti  Ti110  1  0.33333333  0.80555556  0.85416667  1.0
  Ti  Ti111  1  0.66666667  0.13888889  0.85416667  1.0
  Ti  Ti112  1  0.66666667  0.47222222  0.85416667  1.0
  Ti  Ti113  1  0.66666667  0.80555556  0.85416667  1.0
  Ti  Ti114  1  0.00000000  0.13888889  0.85416667  1.0
  Ti  Ti115  1  1.00000000  0.47222222  0.85416667  1.0
  Ti  Ti116  1  0.00000000  0.80555556  0.85416667  1.0
  Ti  Ti117  1  0.16666667  0.02777778  0.89583333  1.0
  Ti  Ti118  1  0.16666667  0.36111111  0.89583333  1.0
  Ti  Ti119  1  0.16666667  0.69444444  0.89583333  1.0
  Ti  Ti120  1  0.50000000  0.02777778  0.89583333  1.0
  Ti  Ti121  1  0.50000000  0.36111111  0.89583333  1.0
  Ti  Ti122  1  0.50000000  0.69444444  0.89583333  1.0
  Ti  Ti123  1  0.83333333  0.02777778  0.89583333  1.0
  Ti  Ti124  1  0.83333333  0.36111111  0.89583333  1.0
  Ti  Ti125  1  0.83333333  0.69444444  0.89583333  1.0
  Ti  Ti126  1  0.33333333  0.02777778  0.77083333  1.0
  Ti  Ti127  1  0.33333333  0.36111111  0.77083333  1.0
  Ti  Ti128  1  0.33333333  0.69444444  0.77083333  1.0
  Ti  Ti129  1  0.66666667  0.02777778  0.77083333  1.0
  Ti  Ti130  1  0.66666667  0.36111111  0.77083333  1.0
  Ti  Ti131  1  0.66666667  0.69444444  0.77083333  1.0
  Ti  Ti132  1  1.00000000  0.02777778  0.77083333  1.0
  Ti  Ti133  1  1.00000000  0.36111111  0.77083333  1.0
  Ti  Ti134  1  0.00000000  0.69444444  0.77083333  1.0
  Ti  Ti135  1  0.16666667  0.25000000  0.81250000  1.0
  Ti  Ti136  1  0.16666667  0.58333333  0.81250000  1.0
  Ti  Ti137  1  0.16666667  0.91666667  0.81250000  1.0
  Ti  Ti138  1  0.50000000  0.25000000  0.81250000  1.0
  Ti  Ti139  1  0.50000000  0.58333333  0.81250000  1.0
  Ti  Ti140  1  0.50000000  0.91666667  0.81250000  1.0
  Ti  Ti141  1  0.83333333  0.25000000  0.81250000  1.0
  Ti  Ti142  1  0.83333333  0.58333333  0.81250000  1.0
  Ti  Ti143  1  0.83333333  0.91666667  0.81250000  1.0
  Ti  Ti144  1  0.33333333  0.25000000  0.68750000  1.0
  Ti  Ti145  1  0.33333333  0.58333333  0.68750000  1.0
  Ti  Ti146  1  0.33333333  0.91666667  0.68750000  1.0
  Ti  Ti147  1  0.66666667  0.25000000  0.68750000  1.0
  Ti  Ti148  1  0.66666667  0.58333333  0.68750000  1.0
  Ti  Ti149  1  0.66666667  0.91666667  0.68750000  1.0
  Ti  Ti150  1  0.00000000  0.25000000  0.68750000  1.0
  Ti  Ti151  1  1.00000000  0.58333333  0.68750000  1.0
  Ti  Ti152  1  0.00000000  0.91666667  0.68750000  1.0
  Ti  Ti153  1  0.16666667  0.13888889  0.72916667  1.0
  Ti  Ti154  1  0.16666667  0.47222222  0.72916667  1.0
  Ti  Ti155  1  0.16666667  0.80555556  0.72916667  1.0
  Ti  Ti156  1  0.50000000  0.13888889  0.72916667  1.0
  Ti  Ti157  1  0.50000000  0.47222222  0.72916667  1.0
  Ti  Ti158  1  0.50000000  0.80555556  0.72916667  1.0
  Ti  Ti159  1  0.83333333  0.13888889  0.72916667  1.0
  Ti  Ti160  1  0.83333333  0.47222222  0.72916667  1.0
  Ti  Ti161  1  0.83333333  0.80555556  0.72916667  1.0
  Ti  Ti162  1  0.33333333  0.13888889  0.60416667  1.0
  Ti  Ti163  1  0.33333333  0.47222222  0.60416667  1.0
  Ti  Ti164  1  0.33333333  0.80555556  0.60416667  1.0
  Ti  Ti165  1  0.66666667  0.13888889  0.60416667  1.0
  Ti  Ti166  1  0.66666667  0.47222222  0.60416667  1.0
  Ti  Ti167  1  0.66666667  0.80555556  0.60416667  1.0
  Ti  Ti168  1  1.00000000  0.13888889  0.60416667  1.0
  Ti  Ti169  1  1.00000000  0.47222222  0.60416667  1.0
  Ti  Ti170  1  0.00000000  0.80555556  0.60416667  1.0
  Ti  Ti171  1  0.16666667  0.02777778  0.64583333  1.0
  Ti  Ti172  1  0.16666667  0.36111111  0.64583333  1.0
  Ti  Ti173  1  0.16666667  0.69444444  0.64583333  1.0
  Ti  Ti174  1  0.50000000  0.02777778  0.64583333  1.0
  Ti  Ti175  1  0.50000000  0.36111111  0.64583333  1.0
  Ti  Ti176  1  0.50000000  0.69444444  0.64583333  1.0
  Ti  Ti177  1  0.83333333  0.02777778  0.64583333  1.0
  Ti  Ti178  1  0.83333333  0.36111111  0.64583333  1.0
  Ti  Ti179  1  0.83333333  0.69444444  0.64583333  1.0
