# generated using pymatgen
data_TiNi
_symmetry_space_group_name_H-M   'P 1'
_cell_length_a   21.73962480
_cell_length_b   21.73962480
_cell_length_c   26.98710000
_cell_angle_alpha   90.00000000
_cell_angle_beta   90.00000000
_cell_angle_gamma   120.00000000
_symmetry_Int_Tables_number   1
_chemical_formula_structural   TiNi
_chemical_formula_sum   'Ti162 Ni162'
_cell_volume   11045.64138016
_cell_formula_units_Z   162
loop_
 _symmetry_equiv_pos_site_id
 _symmetry_equiv_pos_as_xyz
  1  'x, y, z'
loop_
 _atom_site_type_symbol
 _atom_site_label
 _atom_site_symmetry_multiplicity
 _atom_site_fract_x
 _atom_site_fract_y
 _atom_site_fract_z
 _atom_site_occupancy
  Ti  Ti0  1  0.22222222  0.11111111  0.18989290  1.0
  Ti  Ti1  1  0.22222222  0.44444444  0.18989290  1.0
  Ti  Ti2  1  0.22222222  0.77777778  0.18989290  1.0
  Ti  Ti3  1  0.55555556  0.11111111  0.18989290  1.0
  Ti  Ti4  1  0.55555556  0.44444444  0.18989290  1.0
  Ti  Ti5  1  0.55555556  0.77777778  0.18989290  1.0
  Ti  Ti6  1  0.88888889  0.11111111  0.18989290  1.0
  Ti  Ti7  1  0.88888889  0.44444444  0.18989290  1.0
  Ti  Ti8  1  0.88888889  0.77777778  0.18989290  1.0
  Ti  Ti9  1  0.00000000  0.00000000  0.17342270  1.0
  Ti  Ti10  1  0.00000000  0.33333333  0.17342270  1.0
  Ti  Ti11  1  0.00000000  0.66666667  0.17342270  1.0
  Ti  Ti12  1  0.33333333  0.00000000  0.17342270  1.0
  Ti  Ti13  1  0.33333333  0.33333333  0.17342270  1.0
  Ti  Ti14  1  0.33333333  0.66666667  0.17342270  1.0
  Ti  Ti15  1  0.66666667  0.00000000  0.17342270  1.0
  Ti  Ti16  1  0.66666667  0.33333333  0.17342270  1.0
  Ti  Ti17  1  0.66666667  0.66666667  0.17342270  1.0
  Ti  Ti18  1  0.11111111  0.22222222  0.18989290  1.0
  Ti  Ti19  1  0.11111111  0.55555556  0.18989290  1.0
  Ti  Ti20  1  0.11111111  0.88888889  0.18989290  1.0
  Ti  Ti21  1  0.44444444  0.22222222  0.18989290  1.0
  Ti  Ti22  1  0.44444444  0.55555556  0.18989290  1.0
  Ti  Ti23  1  0.44444444  0.88888889  0.18989290  1.0
  Ti  Ti24  1  0.77777778  0.22222222  0.18989290  1.0
  Ti  Ti25  1  0.77777778  0.55555556  0.18989290  1.0
  Ti  Ti26  1  0.77777778  0.88888889  0.18989290  1.0
  Ti  Ti27  1  0.00000000  0.22841050  0.11337050  1.0
  Ti  Ti28  1  0.00000000  0.56174383  0.11337050  1.0
  Ti  Ti29  1  0.00000000  0.89507717  0.11337050  1.0
  Ti  Ti30  1  0.33333333  0.22841050  0.11337050  1.0
  Ti  Ti31  1  0.33333333  0.56174383  0.11337050  1.0
  Ti  Ti32  1  0.33333333  0.89507717  0.11337050  1.0
  Ti  Ti33  1  0.66666667  0.22841050  0.11337050  1.0
  Ti  Ti34  1  0.66666667  0.56174383  0.11337050  1.0
  Ti  Ti35  1  0.66666667  0.89507717  0.11337050  1.0
  Ti  Ti36  1  0.10492283  0.10492283  0.11337050  1.0
  Ti  Ti37  1  0.10492283  0.43825617  0.11337050  1.0
  Ti  Ti38  1  0.10492283  0.77158950  0.11337050  1.0
  Ti  Ti39  1  0.43825617  0.10492283  0.11337050  1.0
  Ti  Ti40  1  0.43825617  0.43825617  0.11337050  1.0
  Ti  Ti41  1  0.43825617  0.77158950  0.11337050  1.0
  Ti  Ti42  1  0.77158950  0.10492283  0.11337050  1.0
  Ti  Ti43  1  0.77158950  0.43825617  0.11337050  1.0
  Ti  Ti44  1  0.77158950  0.77158950  0.11337050  1.0
  Ti  Ti45  1  0.22841050  0.00000000  0.11337050  1.0
  Ti  Ti46  1  0.22841050  0.33333333  0.11337050  1.0
  Ti  Ti47  1  0.22841050  0.66666667  0.11337050  1.0
  Ti  Ti48  1  0.56174383  0.00000000  0.11337050  1.0
  Ti  Ti49  1  0.56174383  0.33333333  0.11337050  1.0
  Ti  Ti50  1  0.56174383  0.66666667  0.11337050  1.0
  Ti  Ti51  1  0.89507717  0.00000000  0.11337050  1.0
  Ti  Ti52  1  0.89507717  0.33333333  0.11337050  1.0
  Ti  Ti53  1  0.89507717  0.66666667  0.11337050  1.0
  Ti  Ti54  1  0.11524483  0.00000000  0.05288330  1.0
  Ti  Ti55  1  0.11524483  0.33333333  0.05288330  1.0
  Ti  Ti56  1  0.11524483  0.66666667  0.05288330  1.0
  Ti  Ti57  1  0.44857817  0.00000000  0.05288330  1.0
  Ti  Ti58  1  0.44857817  0.33333333  0.05288330  1.0
  Ti  Ti59  1  0.44857817  0.66666667  0.05288330  1.0
  Ti  Ti60  1  0.78191150  0.00000000  0.05288330  1.0
  Ti  Ti61  1  0.78191150  0.33333333  0.05288330  1.0
  Ti  Ti62  1  0.78191150  0.66666667  0.05288330  1.0
  Ti  Ti63  1  0.00000000  0.11524483  0.05288330  1.0
  Ti  Ti64  1  0.00000000  0.44857817  0.05288330  1.0
  Ti  Ti65  1  0.00000000  0.78191150  0.05288330  1.0
  Ti  Ti66  1  0.33333333  0.11524483  0.05288330  1.0
  Ti  Ti67  1  0.33333333  0.44857817  0.05288330  1.0
  Ti  Ti68  1  0.33333333  0.78191150  0.05288330  1.0
  Ti  Ti69  1  0.66666667  0.11524483  0.05288330  1.0
  Ti  Ti70  1  0.66666667  0.44857817  0.05288330  1.0
  Ti  Ti71  1  0.66666667  0.78191150  0.05288330  1.0
  Ti  Ti72  1  0.21808850  0.21808850  0.05288330  1.0
  Ti  Ti73  1  0.21808850  0.55142183  0.05288330  1.0
  Ti  Ti74  1  0.21808850  0.88475517  0.05288330  1.0
  Ti  Ti75  1  0.55142183  0.21808850  0.05288330  1.0
  Ti  Ti76  1  0.55142183  0.55142183  0.05288330  1.0
  Ti  Ti77  1  0.55142183  0.88475517  0.05288330  1.0
  Ti  Ti78  1  0.88475517  0.21808850  0.05288330  1.0
  Ti  Ti79  1  0.88475517  0.55142183  0.05288330  1.0
  Ti  Ti80  1  0.88475517  0.88475517  0.05288330  1.0
  Ni  Ni81  1  0.22222222  0.11111111  0.09787630  1.0
  Ni  Ni82  1  0.22222222  0.44444444  0.09787630  1.0
  Ni  Ni83  1  0.22222222  0.77777778  0.09787630  1.0
  Ni  Ni84  1  0.55555556  0.11111111  0.09787630  1.0
  Ni  Ni85  1  0.55555556  0.44444444  0.09787630  1.0
  Ni  Ni86  1  0.55555556  0.77777778  0.09787630  1.0
  Ni  Ni87  1  0.88888889  0.11111111  0.09787630  1.0
  Ni  Ni88  1  0.88888889  0.44444444  0.09787630  1.0
  Ni  Ni89  1  0.88888889  0.77777778  0.09787630  1.0
  Ni  Ni90  1  0.00000000  0.00000000  0.06316270  1.0
  Ni  Ni91  1  0.00000000  0.33333333  0.06316270  1.0
  Ni  Ni92  1  0.00000000  0.66666667  0.06316270  1.0
  Ni  Ni93  1  0.33333333  0.00000000  0.06316270  1.0
  Ni  Ni94  1  0.33333333  0.33333333  0.06316270  1.0
  Ni  Ni95  1  0.33333333  0.66666667  0.06316270  1.0
  Ni  Ni96  1  0.66666667  0.00000000  0.06316270  1.0
  Ni  Ni97  1  0.66666667  0.33333333  0.06316270  1.0
  Ni  Ni98  1  0.66666667  0.66666667  0.06316270  1.0
  Ni  Ni99  1  0.11111111  0.22222222  0.09787630  1.0
  Ni  Ni100  1  0.11111111  0.55555556  0.09787630  1.0
  Ni  Ni101  1  0.11111111  0.88888889  0.09787630  1.0
  Ni  Ni102  1  0.44444444  0.22222222  0.09787630  1.0
  Ni  Ni103  1  0.44444444  0.55555556  0.09787630  1.0
  Ni  Ni104  1  0.44444444  0.88888889  0.09787630  1.0
  Ni  Ni105  1  0.77777778  0.22222222  0.09787630  1.0
  Ni  Ni106  1  0.77777778  0.55555556  0.09787630  1.0
  Ni  Ni107  1  0.77777778  0.88888889  0.09787630  1.0
  Ni  Ni108  1  0.00000000  0.22927017  0.01010710  1.0
  Ni  Ni109  1  0.00000000  0.56260350  0.01010710  1.0
  Ni  Ni110  1  0.00000000  0.89593683  0.01010710  1.0
  Ni  Ni111  1  0.33333333  0.22927017  0.01010710  1.0
  Ni  Ni112  1  0.33333333  0.56260350  0.01010710  1.0
  Ni  Ni113  1  0.33333333  0.89593683  0.01010710  1.0
  Ni  Ni114  1  0.66666667  0.22927017  0.01010710  1.0
  Ni  Ni115  1  0.66666667  0.56260350  0.01010710  1.0
  Ni  Ni116  1  0.66666667  0.89593683  0.01010710  1.0
  Ni  Ni117  1  0.10406317  0.10406317  0.01010710  1.0
  Ni  Ni118  1  0.10406317  0.43739650  0.01010710  1.0
  Ni  Ni119  1  0.10406317  0.77072983  0.01010710  1.0
  Ni  Ni120  1  0.43739650  0.10406317  0.01010710  1.0
  Ni  Ni121  1  0.43739650  0.43739650  0.01010710  1.0
  Ni  Ni122  1  0.43739650  0.77072983  0.01010710  1.0
  Ni  Ni123  1  0.77072983  0.10406317  0.01010710  1.0
  Ni  Ni124  1  0.77072983  0.43739650  0.01010710  1.0
  Ni  Ni125  1  0.77072983  0.77072983  0.01010710  1.0
  Ni  Ni126  1  0.22927017  0.00000000  0.01010710  1.0
  Ni  Ni127  1  0.22927017  0.33333333  0.01010710  1.0
  Ni  Ni128  1  0.22927017  0.66666667  0.01010710  1.0
  Ni  Ni129  1  0.56260350  0.00000000  0.01010710  1.0
  Ni  Ni130  1  0.56260350  0.33333333  0.01010710  1.0
  Ni  Ni131  1  0.56260350  0.66666667  0.01010710  1.0
  Ni  Ni132  1  0.89593683  0.00000000  0.01010710  1.0
  Ni  Ni133  1  0.89593683  0.33333333  0.01010710  1.0
  Ni  Ni134  1  0.89593683  0.66666667  0.01010710  1.0
  Ni  Ni135  1  0.11986017  0.00000000  0.15440190  1.0
  Ni  Ni136  1  0.11986017  0.33333333  0.15440190  1.0
  Ni  Ni137  1  0.11986017  0.66666667  0.15440190  1.0
  Ni  Ni138  1  0.45319350  0.00000000  0.15440190  1.0
  Ni  Ni139  1  0.45319350  0.33333333  0.15440190  1.0
  Ni  Ni140  1  0.45319350  0.66666667  0.15440190  1.0
  Ni  Ni141  1  0.78652683  0.00000000  0.15440190  1.0
  Ni  Ni142  1  0.78652683  0.33333333  0.15440190  1.0
  Ni  Ni143  1  0.78652683  0.66666667  0.15440190  1.0
  Ni  Ni144  1  0.00000000  0.11986017  0.15440190  1.0
  Ni  Ni145  1  0.00000000  0.45319350  0.15440190  1.0
  Ni  Ni146  1  0.00000000  0.78652683  0.15440190  1.0
  Ni  Ni147  1  0.33333333  0.11986017  0.15440190  1.0
  Ni  Ni148  1  0.33333333  0.45319350  0.15440190  1.0
  Ni  Ni149  1  0.33333333  0.78652683  0.15440190  1.0
  Ni  Ni150  1  0.66666667  0.11986017  0.15440190  1.0
  Ni  Ni151  1  0.66666667  0.45319350  0.15440190  1.0
  Ni  Ni152  1  0.66666667  0.78652683  0.15440190  1.0
  Ni  Ni153  1  0.21347317  0.21347317  0.15440190  1.0
  Ni  Ni154  1  0.21347317  0.54680650  0.15440190  1.0
  Ni  Ni155  1  0.21347317  0.88013983  0.15440190  1.0
  Ni  Ni156  1  0.54680650  0.21347317  0.15440190  1.0
  Ni  Ni157  1  0.54680650  0.54680650  0.15440190  1.0
  Ni  Ni158  1  0.54680650  0.88013983  0.15440190  1.0
  Ni  Ni159  1  0.88013983  0.21347317  0.15440190  1.0
  Ni  Ni160  1  0.88013983  0.54680650  0.15440190  1.0
  Ni  Ni161  1  0.88013983  0.88013983  0.15440190  1.0
  Ti  Ti162  1  0.22222222  0.11111111  0.38989290  1.0
  Ti  Ti163  1  0.22222222  0.44444444  0.38989290  1.0
  Ti  Ti164  1  0.22222222  0.77777778  0.38989290  1.0
  Ti  Ti165  1  0.55555556  0.11111111  0.38989290  1.0
  Ti  Ti166  1  0.55555556  0.44444444  0.38989290  1.0
  Ti  Ti167  1  0.55555556  0.77777778  0.38989290  1.0
  Ti  Ti168  1  0.88888889  0.11111111  0.38989290  1.0
  Ti  Ti169  1  0.88888889  0.44444444  0.38989290  1.0
  Ti  Ti170  1  0.88888889  0.77777778  0.38989290  1.0
  Ti  Ti171  1  0.00000000  0.00000000  0.37342270  1.0
  Ti  Ti172  1  0.00000000  0.33333333  0.37342270  1.0
  Ti  Ti173  1  0.00000000  0.66666667  0.37342270  1.0
  Ti  Ti174  1  0.33333333  0.00000000  0.37342270  1.0
  Ti  Ti175  1  0.33333333  0.33333333  0.37342270  1.0
  Ti  Ti176  1  0.33333333  0.66666667  0.37342270  1.0
  Ti  Ti177  1  0.66666667  0.00000000  0.37342270  1.0
  Ti  Ti178  1  0.66666667  0.33333333  0.37342270  1.0
  Ti  Ti179  1  0.66666667  0.66666667  0.37342270  1.0
  Ti  Ti180  1  0.11111111  0.22222222  0.38989290  1.0
  Ti  Ti181  1  0.11111111  0.55555556  0.38989290  1.0
  Ti  Ti182  1  0.11111111  0.88888889  0.38989290  1.0
  Ti  Ti183  1  0.44444444  0.22222222  0.38989290  1.0
  Ti  Ti184  1  0.44444444  0.55555556  0.38989290  1.0
  Ti  Ti185  1  0.44444444  0.88888889  0.38989290  1.0
  Ti  Ti186  1  0.77777778  0.22222222  0.38989290  1.0
  Ti  Ti187  1  0.77777778  0.55555556  0.38989290  1.0
  Ti  Ti188  1  0.77777778  0.88888889  0.38989290  1.0
  Ti  Ti189  1  0.00000000  0.22841050  0.31337050  1.0
  Ti  Ti190  1  0.00000000  0.56174383  0.31337050  1.0
  Ti  Ti191  1  0.00000000  0.89507717  0.31337050  1.0
  Ti  Ti192  1  0.33333333  0.22841050  0.31337050  1.0
  Ti  Ti193  1  0.33333333  0.56174383  0.31337050  1.0
  Ti  Ti194  1  0.33333333  0.89507717  0.31337050  1.0
  Ti  Ti195  1  0.66666667  0.22841050  0.31337050  1.0
  Ti  Ti196  1  0.66666667  0.56174383  0.31337050  1.0
  Ti  Ti197  1  0.66666667  0.89507717  0.31337050  1.0
  Ti  Ti198  1  0.10492283  0.10492283  0.31337050  1.0
  Ti  Ti199  1  0.10492283  0.43825617  0.31337050  1.0
  Ti  Ti200  1  0.10492283  0.77158950  0.31337050  1.0
  Ti  Ti201  1  0.43825617  0.10492283  0.31337050  1.0
  Ti  Ti202  1  0.43825617  0.43825617  0.31337050  1.0
  Ti  Ti203  1  0.43825617  0.77158950  0.31337050  1.0
  Ti  Ti204  1  0.77158950  0.10492283  0.31337050  1.0
  Ti  Ti205  1  0.77158950  0.43825617  0.31337050  1.0
  Ti  Ti206  1  0.77158950  0.77158950  0.31337050  1.0
  Ti  Ti207  1  0.22841050  0.00000000  0.31337050  1.0
  Ti  Ti208  1  0.22841050  0.33333333  0.31337050  1.0
  Ti  Ti209  1  0.22841050  0.66666667  0.31337050  1.0
  Ti  Ti210  1  0.56174383  0.00000000  0.31337050  1.0
  Ti  Ti211  1  0.56174383  0.33333333  0.31337050  1.0
  Ti  Ti212  1  0.56174383  0.66666667  0.31337050  1.0
  Ti  Ti213  1  0.89507717  0.00000000  0.31337050  1.0
  Ti  Ti214  1  0.89507717  0.33333333  0.31337050  1.0
  Ti  Ti215  1  0.89507717  0.66666667  0.31337050  1.0
  Ti  Ti216  1  0.11524483  0.00000000  0.25288330  1.0
  Ti  Ti217  1  0.11524483  0.33333333  0.25288330  1.0
  Ti  Ti218  1  0.11524483  0.66666667  0.25288330  1.0
  Ti  Ti219  1  0.44857817  0.00000000  0.25288330  1.0
  Ti  Ti220  1  0.44857817  0.33333333  0.25288330  1.0
  Ti  Ti221  1  0.44857817  0.66666667  0.25288330  1.0
  Ti  Ti222  1  0.78191150  0.00000000  0.25288330  1.0
  Ti  Ti223  1  0.78191150  0.33333333  0.25288330  1.0
  Ti  Ti224  1  0.78191150  0.66666667  0.25288330  1.0
  Ti  Ti225  1  0.00000000  0.11524483  0.25288330  1.0
  Ti  Ti226  1  0.00000000  0.44857817  0.25288330  1.0
  Ti  Ti227  1  0.00000000  0.78191150  0.25288330  1.0
  Ti  Ti228  1  0.33333333  0.11524483  0.25288330  1.0
  Ti  Ti229  1  0.33333333  0.44857817  0.25288330  1.0
  Ti  Ti230  1  0.33333333  0.78191150  0.25288330  1.0
  Ti  Ti231  1  0.66666667  0.11524483  0.25288330  1.0
  Ti  Ti232  1  0.66666667  0.44857817  0.25288330  1.0
  Ti  Ti233  1  0.66666667  0.78191150  0.25288330  1.0
  Ti  Ti234  1  0.21808850  0.21808850  0.25288330  1.0
  Ti  Ti235  1  0.21808850  0.55142183  0.25288330  1.0
  Ti  Ti236  1  0.21808850  0.88475517  0.25288330  1.0
  Ti  Ti237  1  0.55142183  0.21808850  0.25288330  1.0
  Ti  Ti238  1  0.55142183  0.55142183  0.25288330  1.0
  Ti  Ti239  1  0.55142183  0.88475517  0.25288330  1.0
  Ti  Ti240  1  0.88475517  0.21808850  0.25288330  1.0
  Ti  Ti241  1  0.88475517  0.55142183  0.25288330  1.0
  Ti  Ti242  1  0.88475517  0.88475517  0.25288330  1.0
  Ni  Ni243  1  0.22222222  0.11111111  0.29787630  1.0
  Ni  Ni244  1  0.22222222  0.44444444  0.29787630  1.0
  Ni  Ni245  1  0.22222222  0.77777778  0.29787630  1.0
  Ni  Ni246  1  0.55555556  0.11111111  0.29787630  1.0
  Ni  Ni247  1  0.55555556  0.44444444  0.29787630  1.0
  Ni  Ni248  1  0.55555556  0.77777778  0.29787630  1.0
  Ni  Ni249  1  0.88888889  0.11111111  0.29787630  1.0
  Ni  Ni250  1  0.88888889  0.44444444  0.29787630  1.0
  Ni  Ni251  1  0.88888889  0.77777778  0.29787630  1.0
  Ni  Ni252  1  0.00000000  0.00000000  0.26316270  1.0
  Ni  Ni253  1  0.00000000  0.33333333  0.26316270  1.0
  Ni  Ni254  1  0.00000000  0.66666667  0.26316270  1.0
  Ni  Ni255  1  0.33333333  0.00000000  0.26316270  1.0
  Ni  Ni256  1  0.33333333  0.33333333  0.26316270  1.0
  Ni  Ni257  1  0.33333333  0.66666667  0.26316270  1.0
  Ni  Ni258  1  0.66666667  0.00000000  0.26316270  1.0
  Ni  Ni259  1  0.66666667  0.33333333  0.26316270  1.0
  Ni  Ni260  1  0.66666667  0.66666667  0.26316270  1.0
  Ni  Ni261  1  0.11111111  0.22222222  0.29787630  1.0
  Ni  Ni262  1  0.11111111  0.55555556  0.29787630  1.0
  Ni  Ni263  1  0.11111111  0.88888889  0.29787630  1.0
  Ni  Ni264  1  0.44444444  0.22222222  0.29787630  1.0
  Ni  Ni265  1  0.44444444  0.55555556  0.29787630  1.0
  Ni  Ni266  1  0.44444444  0.88888889  0.29787630  1.0
  Ni  Ni267  1  0.77777778  0.22222222  0.29787630  1.0
  Ni  Ni268  1  0.77777778  0.55555556  0.29787630  1.0
  Ni  Ni269  1  0.77777778  0.88888889  0.29787630  1.0
  Ni  Ni270  1  0.00000000  0.22927017  0.21010710  1.0
  Ni  Ni271  1  0.00000000  0.56260350  0.21010710  1.0
  Ni  Ni272  1  0.00000000  0.89593683  0.21010710  1.0
  Ni  Ni273  1  0.33333333  0.22927017  0.21010710  1.0
  Ni  Ni274  1  0.33333333  0.56260350  0.21010710  1.0
  Ni  Ni275  1  0.33333333  0.89593683  0.21010710  1.0
  Ni  Ni276  1  0.66666667  0.22927017  0.21010710  1.0
  Ni  Ni277  1  0.66666667  0.56260350  0.21010710  1.0
  Ni  Ni278  1  0.66666667  0.89593683  0.21010710  1.0
  Ni  Ni279  1  0.10406317  0.10406317  0.21010710  1.0
  Ni  Ni280  1  0.10406317  0.43739650  0.21010710  1.0
  Ni  Ni281  1  0.10406317  0.77072983  0.21010710  1.0
  Ni  Ni282  1  0.43739650  0.10406317  0.21010710  1.0
  Ni  Ni283  1  0.43739650  0.43739650  0.21010710  1.0
  Ni  Ni284  1  0.43739650  0.77072983  0.21010710  1.0
  Ni  Ni285  1  0.77072983  0.10406317  0.21010710  1.0
  Ni  Ni286  1  0.77072983  0.43739650  0.21010710  1.0
  Ni  Ni287  1  0.77072983  0.77072983  0.21010710  1.0
  Ni  Ni288  1  0.22927017  0.00000000  0.21010710  1.0
  Ni  Ni289  1  0.22927017  0.33333333  0.21010710  1.0
  Ni  Ni290  1  0.22927017  0.66666667  0.21010710  1.0
  Ni  Ni291  1  0.56260350  0.00000000  0.21010710  1.0
  Ni  Ni292  1  0.56260350  0.33333333  0.21010710  1.0
  Ni  Ni293  1  0.56260350  0.66666667  0.21010710  1.0
  Ni  Ni294  1  0.89593683  0.00000000  0.21010710  1.0
  Ni  Ni295  1  0.89593683  0.33333333  0.21010710  1.0
  Ni  Ni296  1  0.89593683  0.66666667  0.21010710  1.0
  Ni  Ni297  1  0.11986017  0.00000000  0.35440190  1.0
  Ni  Ni298  1  0.11986017  0.33333333  0.35440190  1.0
  Ni  Ni299  1  0.11986017  0.66666667  0.35440190  1.0
  Ni  Ni300  1  0.45319350  0.00000000  0.35440190  1.0
  Ni  Ni301  1  0.45319350  0.33333333  0.35440190  1.0
  Ni  Ni302  1  0.45319350  0.66666667  0.35440190  1.0
  Ni  Ni303  1  0.78652683  0.00000000  0.35440190  1.0
  Ni  Ni304  1  0.78652683  0.33333333  0.35440190  1.0
  Ni  Ni305  1  0.78652683  0.66666667  0.35440190  1.0
  Ni  Ni306  1  0.00000000  0.11986017  0.35440190  1.0
  Ni  Ni307  1  0.00000000  0.45319350  0.35440190  1.0
  Ni  Ni308  1  0.00000000  0.78652683  0.35440190  1.0
  Ni  Ni309  1  0.33333333  0.11986017  0.35440190  1.0
  Ni  Ni310  1  0.33333333  0.45319350  0.35440190  1.0
  Ni  Ni311  1  0.33333333  0.78652683  0.35440190  1.0
  Ni  Ni312  1  0.66666667  0.11986017  0.35440190  1.0
  Ni  Ni313  1  0.66666667  0.45319350  0.35440190  1.0
  Ni  Ni314  1  0.66666667  0.78652683  0.35440190  1.0
  Ni  Ni315  1  0.21347317  0.21347317  0.35440190  1.0
  Ni  Ni316  1  0.21347317  0.54680650  0.35440190  1.0
  Ni  Ni317  1  0.21347317  0.88013983  0.35440190  1.0
  Ni  Ni318  1  0.54680650  0.21347317  0.35440190  1.0
  Ni  Ni319  1  0.54680650  0.54680650  0.35440190  1.0
  Ni  Ni320  1  0.54680650  0.88013983  0.35440190  1.0
  Ni  Ni321  1  0.88013983  0.21347317  0.35440190  1.0
  Ni  Ni322  1  0.88013983  0.54680650  0.35440190  1.0
  Ni  Ni323  1  0.88013983  0.88013983  0.35440190  1.0
