# generated using pymatgen
data_TiNi
_symmetry_space_group_name_H-M   'P 1'
_cell_length_a   21.83426784
_cell_length_b   21.83426784
_cell_length_c   26.59348500
_cell_angle_alpha   90.00000000
_cell_angle_beta   90.00000000
_cell_angle_gamma   120.00000000
_symmetry_Int_Tables_number   1
_chemical_formula_structural   TiNi
_chemical_formula_sum   'Ti162 Ni162'
_cell_volume   10979.51490845
_cell_formula_units_Z   162
loop_
 _symmetry_equiv_pos_site_id
 _symmetry_equiv_pos_as_xyz
  1  'x, y, z'
loop_
 _atom_site_type_symbol
 _atom_site_label
 _atom_site_symmetry_multiplicity
 _atom_site_fract_x
 _atom_site_fract_y
 _atom_site_fract_z
 _atom_site_occupancy
  Ti  Ti0  1  0.00000000  0.00000000  0.19559040  1.0
  Ti  Ti1  1  0.00000000  0.33333333  0.19559040  1.0
  Ti  Ti2  1  0.00000000  0.66666667  0.19559040  1.0
  Ti  Ti3  1  0.33333333  0.00000000  0.19559040  1.0
  Ti  Ti4  1  0.33333333  0.33333333  0.19559040  1.0
  Ti  Ti5  1  0.33333333  0.66666667  0.19559040  1.0
  Ti  Ti6  1  0.66666667  0.00000000  0.19559040  1.0
  Ti  Ti7  1  0.66666667  0.33333333  0.19559040  1.0
  Ti  Ti8  1  0.66666667  0.66666667  0.19559040  1.0
  Ti  Ti9  1  0.11111111  0.22222222  0.00440960  1.0
  Ti  Ti10  1  0.11111111  0.55555556  0.00440960  1.0
  Ti  Ti11  1  0.11111111  0.88888889  0.00440960  1.0
  Ti  Ti12  1  0.44444444  0.22222222  0.00440960  1.0
  Ti  Ti13  1  0.44444444  0.55555556  0.00440960  1.0
  Ti  Ti14  1  0.44444444  0.88888889  0.00440960  1.0
  Ti  Ti15  1  0.77777778  0.22222222  0.00440960  1.0
  Ti  Ti16  1  0.77777778  0.55555556  0.00440960  1.0
  Ti  Ti17  1  0.77777778  0.88888889  0.00440960  1.0
  Ti  Ti18  1  0.22222222  0.11111111  0.18677120  1.0
  Ti  Ti19  1  0.22222222  0.44444444  0.18677120  1.0
  Ti  Ti20  1  0.22222222  0.77777778  0.18677120  1.0
  Ti  Ti21  1  0.55555556  0.11111111  0.18677120  1.0
  Ti  Ti22  1  0.55555556  0.44444444  0.18677120  1.0
  Ti  Ti23  1  0.55555556  0.77777778  0.18677120  1.0
  Ti  Ti24  1  0.88888889  0.11111111  0.18677120  1.0
  Ti  Ti25  1  0.88888889  0.44444444  0.18677120  1.0
  Ti  Ti26  1  0.88888889  0.77777778  0.18677120  1.0
  Ti  Ti27  1  0.11029200  0.32897367  0.06479340  1.0
  Ti  Ti28  1  0.11029200  0.66230700  0.06479340  1.0
  Ti  Ti29  1  0.11029200  0.99564033  0.06479340  1.0
  Ti  Ti30  1  0.44362533  0.32897367  0.06479340  1.0
  Ti  Ti31  1  0.44362533  0.66230700  0.06479340  1.0
  Ti  Ti32  1  0.44362533  0.99564033  0.06479340  1.0
  Ti  Ti33  1  0.77695867  0.32897367  0.06479340  1.0
  Ti  Ti34  1  0.77695867  0.66230700  0.06479340  1.0
  Ti  Ti35  1  0.77695867  0.99564033  0.06479340  1.0
  Ti  Ti36  1  0.00435967  0.11465167  0.06479340  1.0
  Ti  Ti37  1  0.00435967  0.44798500  0.06479340  1.0
  Ti  Ti38  1  0.00435967  0.78131833  0.06479340  1.0
  Ti  Ti39  1  0.33769300  0.11465167  0.06479340  1.0
  Ti  Ti40  1  0.33769300  0.44798500  0.06479340  1.0
  Ti  Ti41  1  0.33769300  0.78131833  0.06479340  1.0
  Ti  Ti42  1  0.67102633  0.11465167  0.06479340  1.0
  Ti  Ti43  1  0.67102633  0.44798500  0.06479340  1.0
  Ti  Ti44  1  0.67102633  0.78131833  0.06479340  1.0
  Ti  Ti45  1  0.21868167  0.22304133  0.06479340  1.0
  Ti  Ti46  1  0.21868167  0.55637467  0.06479340  1.0
  Ti  Ti47  1  0.21868167  0.88970800  0.06479340  1.0
  Ti  Ti48  1  0.55201500  0.22304133  0.06479340  1.0
  Ti  Ti49  1  0.55201500  0.55637467  0.06479340  1.0
  Ti  Ti50  1  0.55201500  0.88970800  0.06479340  1.0
  Ti  Ti51  1  0.88534833  0.22304133  0.06479340  1.0
  Ti  Ti52  1  0.88534833  0.55637467  0.06479340  1.0
  Ti  Ti53  1  0.88534833  0.88970800  0.06479340  1.0
  Ti  Ti54  1  0.22304133  0.00435967  0.12638740  1.0
  Ti  Ti55  1  0.22304133  0.33769300  0.12638740  1.0
  Ti  Ti56  1  0.22304133  0.67102633  0.12638740  1.0
  Ti  Ti57  1  0.55637467  0.00435967  0.12638740  1.0
  Ti  Ti58  1  0.55637467  0.33769300  0.12638740  1.0
  Ti  Ti59  1  0.55637467  0.67102633  0.12638740  1.0
  Ti  Ti60  1  0.88970800  0.00435967  0.12638740  1.0
  Ti  Ti61  1  0.88970800  0.33769300  0.12638740  1.0
  Ti  Ti62  1  0.88970800  0.67102633  0.12638740  1.0
  Ti  Ti63  1  0.32897367  0.21868167  0.12638740  1.0
  Ti  Ti64  1  0.32897367  0.55201500  0.12638740  1.0
  Ti  Ti65  1  0.32897367  0.88534833  0.12638740  1.0
  Ti  Ti66  1  0.66230700  0.21868167  0.12638740  1.0
  Ti  Ti67  1  0.66230700  0.55201500  0.12638740  1.0
  Ti  Ti68  1  0.66230700  0.88534833  0.12638740  1.0
  Ti  Ti69  1  0.99564033  0.21868167  0.12638740  1.0
  Ti  Ti70  1  0.99564033  0.55201500  0.12638740  1.0
  Ti  Ti71  1  0.99564033  0.88534833  0.12638740  1.0
  Ti  Ti72  1  0.11465167  0.11029200  0.12638740  1.0
  Ti  Ti73  1  0.11465167  0.44362533  0.12638740  1.0
  Ti  Ti74  1  0.11465167  0.77695867  0.12638740  1.0
  Ti  Ti75  1  0.44798500  0.11029200  0.12638740  1.0
  Ti  Ti76  1  0.44798500  0.44362533  0.12638740  1.0
  Ti  Ti77  1  0.44798500  0.77695867  0.12638740  1.0
  Ti  Ti78  1  0.78131833  0.11029200  0.12638740  1.0
  Ti  Ti79  1  0.78131833  0.44362533  0.12638740  1.0
  Ti  Ti80  1  0.78131833  0.77695867  0.12638740  1.0
  Ni  Ni81  1  0.00000000  0.00000000  0.09559040  1.0
  Ni  Ni82  1  0.00000000  0.33333333  0.09559040  1.0
  Ni  Ni83  1  0.00000000  0.66666667  0.09559040  1.0
  Ni  Ni84  1  0.33333333  0.00000000  0.09559040  1.0
  Ni  Ni85  1  0.33333333  0.33333333  0.09559040  1.0
  Ni  Ni86  1  0.33333333  0.66666667  0.09559040  1.0
  Ni  Ni87  1  0.66666667  0.00000000  0.09559040  1.0
  Ni  Ni88  1  0.66666667  0.33333333  0.09559040  1.0
  Ni  Ni89  1  0.66666667  0.66666667  0.09559040  1.0
  Ni  Ni90  1  0.11111111  0.22222222  0.11284860  1.0
  Ni  Ni91  1  0.11111111  0.55555556  0.11284860  1.0
  Ni  Ni92  1  0.11111111  0.88888889  0.11284860  1.0
  Ni  Ni93  1  0.44444444  0.22222222  0.11284860  1.0
  Ni  Ni94  1  0.44444444  0.55555556  0.11284860  1.0
  Ni  Ni95  1  0.44444444  0.88888889  0.11284860  1.0
  Ni  Ni96  1  0.77777778  0.22222222  0.11284860  1.0
  Ni  Ni97  1  0.77777778  0.55555556  0.11284860  1.0
  Ni  Ni98  1  0.77777778  0.88888889  0.11284860  1.0
  Ni  Ni99  1  0.22222222  0.11111111  0.07833220  1.0
  Ni  Ni100  1  0.22222222  0.44444444  0.07833220  1.0
  Ni  Ni101  1  0.22222222  0.77777778  0.07833220  1.0
  Ni  Ni102  1  0.55555556  0.11111111  0.07833220  1.0
  Ni  Ni103  1  0.55555556  0.44444444  0.07833220  1.0
  Ni  Ni104  1  0.55555556  0.77777778  0.07833220  1.0
  Ni  Ni105  1  0.88888889  0.11111111  0.07833220  1.0
  Ni  Ni106  1  0.88888889  0.44444444  0.07833220  1.0
  Ni  Ni107  1  0.88888889  0.77777778  0.07833220  1.0
  Ni  Ni108  1  0.10462000  0.32460300  0.16739180  1.0
  Ni  Ni109  1  0.10462000  0.65793633  0.16739180  1.0
  Ni  Ni110  1  0.10462000  0.99126967  0.16739180  1.0
  Ni  Ni111  1  0.43795333  0.32460300  0.16739180  1.0
  Ni  Ni112  1  0.43795333  0.65793633  0.16739180  1.0
  Ni  Ni113  1  0.43795333  0.99126967  0.16739180  1.0
  Ni  Ni114  1  0.77128667  0.32460300  0.16739180  1.0
  Ni  Ni115  1  0.77128667  0.65793633  0.16739180  1.0
  Ni  Ni116  1  0.77128667  0.99126967  0.16739180  1.0
  Ni  Ni117  1  0.00873033  0.11335033  0.16739180  1.0
  Ni  Ni118  1  0.00873033  0.44668367  0.16739180  1.0
  Ni  Ni119  1  0.00873033  0.78001700  0.16739180  1.0
  Ni  Ni120  1  0.34206367  0.11335033  0.16739180  1.0
  Ni  Ni121  1  0.34206367  0.44668367  0.16739180  1.0
  Ni  Ni122  1  0.34206367  0.78001700  0.16739180  1.0
  Ni  Ni123  1  0.67539700  0.11335033  0.16739180  1.0
  Ni  Ni124  1  0.67539700  0.44668367  0.16739180  1.0
  Ni  Ni125  1  0.67539700  0.78001700  0.16739180  1.0
  Ni  Ni126  1  0.21998300  0.22871333  0.16739180  1.0
  Ni  Ni127  1  0.21998300  0.56204667  0.16739180  1.0
  Ni  Ni128  1  0.21998300  0.89538000  0.16739180  1.0
  Ni  Ni129  1  0.55331633  0.22871333  0.16739180  1.0
  Ni  Ni130  1  0.55331633  0.56204667  0.16739180  1.0
  Ni  Ni131  1  0.55331633  0.89538000  0.16739180  1.0
  Ni  Ni132  1  0.88664967  0.22871333  0.16739180  1.0
  Ni  Ni133  1  0.88664967  0.56204667  0.16739180  1.0
  Ni  Ni134  1  0.88664967  0.89538000  0.16739180  1.0
  Ni  Ni135  1  0.22871333  0.00873033  0.02378900  1.0
  Ni  Ni136  1  0.22871333  0.34206367  0.02378900  1.0
  Ni  Ni137  1  0.22871333  0.67539700  0.02378900  1.0
  Ni  Ni138  1  0.56204667  0.00873033  0.02378900  1.0
  Ni  Ni139  1  0.56204667  0.34206367  0.02378900  1.0
  Ni  Ni140  1  0.56204667  0.67539700  0.02378900  1.0
  Ni  Ni141  1  0.89538000  0.00873033  0.02378900  1.0
  Ni  Ni142  1  0.89538000  0.34206367  0.02378900  1.0
  Ni  Ni143  1  0.89538000  0.67539700  0.02378900  1.0
  Ni  Ni144  1  0.32460300  0.21998300  0.02378900  1.0
  Ni  Ni145  1  0.32460300  0.55331633  0.02378900  1.0
  Ni  Ni146  1  0.32460300  0.88664967  0.02378900  1.0
  Ni  Ni147  1  0.65793633  0.21998300  0.02378900  1.0
  Ni  Ni148  1  0.65793633  0.55331633  0.02378900  1.0
  Ni  Ni149  1  0.65793633  0.88664967  0.02378900  1.0
  Ni  Ni150  1  0.99126967  0.21998300  0.02378900  1.0
  Ni  Ni151  1  0.99126967  0.55331633  0.02378900  1.0
  Ni  Ni152  1  0.99126967  0.88664967  0.02378900  1.0
  Ni  Ni153  1  0.11335033  0.10462000  0.02378900  1.0
  Ni  Ni154  1  0.11335033  0.43795333  0.02378900  1.0
  Ni  Ni155  1  0.11335033  0.77128667  0.02378900  1.0
  Ni  Ni156  1  0.44668367  0.10462000  0.02378900  1.0
  Ni  Ni157  1  0.44668367  0.43795333  0.02378900  1.0
  Ni  Ni158  1  0.44668367  0.77128667  0.02378900  1.0
  Ni  Ni159  1  0.78001700  0.10462000  0.02378900  1.0
  Ni  Ni160  1  0.78001700  0.43795333  0.02378900  1.0
  Ni  Ni161  1  0.78001700  0.77128667  0.02378900  1.0
  Ti  Ti162  1  0.00000000  0.00000000  0.39559040  1.0
  Ti  Ti163  1  0.00000000  0.33333333  0.39559040  1.0
  Ti  Ti164  1  0.00000000  0.66666667  0.39559040  1.0
  Ti  Ti165  1  0.33333333  0.00000000  0.39559040  1.0
  Ti  Ti166  1  0.33333333  0.33333333  0.39559040  1.0
  Ti  Ti167  1  0.33333333  0.66666667  0.39559040  1.0
  Ti  Ti168  1  0.66666667  0.00000000  0.39559040  1.0
  Ti  Ti169  1  0.66666667  0.33333333  0.39559040  1.0
  Ti  Ti170  1  0.66666667  0.66666667  0.39559040  1.0
  Ti  Ti171  1  0.11111111  0.22222222  0.20440960  1.0
  Ti  Ti172  1  0.11111111  0.55555556  0.20440960  1.0
  Ti  Ti173  1  0.11111111  0.88888889  0.20440960  1.0
  Ti  Ti174  1  0.44444444  0.22222222  0.20440960  1.0
  Ti  Ti175  1  0.44444444  0.55555556  0.20440960  1.0
  Ti  Ti176  1  0.44444444  0.88888889  0.20440960  1.0
  Ti  Ti177  1  0.77777778  0.22222222  0.20440960  1.0
  Ti  Ti178  1  0.77777778  0.55555556  0.20440960  1.0
  Ti  Ti179  1  0.77777778  0.88888889  0.20440960  1.0
  Ti  Ti180  1  0.22222222  0.11111111  0.38677120  1.0
  Ti  Ti181  1  0.22222222  0.44444444  0.38677120  1.0
  Ti  Ti182  1  0.22222222  0.77777778  0.38677120  1.0
  Ti  Ti183  1  0.55555556  0.11111111  0.38677120  1.0
  Ti  Ti184  1  0.55555556  0.44444444  0.38677120  1.0
  Ti  Ti185  1  0.55555556  0.77777778  0.38677120  1.0
  Ti  Ti186  1  0.88888889  0.11111111  0.38677120  1.0
  Ti  Ti187  1  0.88888889  0.44444444  0.38677120  1.0
  Ti  Ti188  1  0.88888889  0.77777778  0.38677120  1.0
  Ti  Ti189  1  0.11029200  0.32897367  0.26479340  1.0
  Ti  Ti190  1  0.11029200  0.66230700  0.26479340  1.0
  Ti  Ti191  1  0.11029200  0.99564033  0.26479340  1.0
  Ti  Ti192  1  0.44362533  0.32897367  0.26479340  1.0
  Ti  Ti193  1  0.44362533  0.66230700  0.26479340  1.0
  Ti  Ti194  1  0.44362533  0.99564033  0.26479340  1.0
  Ti  Ti195  1  0.77695867  0.32897367  0.26479340  1.0
  Ti  Ti196  1  0.77695867  0.66230700  0.26479340  1.0
  Ti  Ti197  1  0.77695867  0.99564033  0.26479340  1.0
  Ti  Ti198  1  0.00435967  0.11465167  0.26479340  1.0
  Ti  Ti199  1  0.00435967  0.44798500  0.26479340  1.0
  Ti  Ti200  1  0.00435967  0.78131833  0.26479340  1.0
  Ti  Ti201  1  0.33769300  0.11465167  0.26479340  1.0
  Ti  Ti202  1  0.33769300  0.44798500  0.26479340  1.0
  Ti  Ti203  1  0.33769300  0.78131833  0.26479340  1.0
  Ti  Ti204  1  0.67102633  0.11465167  0.26479340  1.0
  Ti  Ti205  1  0.67102633  0.44798500  0.26479340  1.0
  Ti  Ti206  1  0.67102633  0.78131833  0.26479340  1.0
  Ti  Ti207  1  0.21868167  0.22304133  0.26479340  1.0
  Ti  Ti208  1  0.21868167  0.55637467  0.26479340  1.0
  Ti  Ti209  1  0.21868167  0.88970800  0.26479340  1.0
  Ti  Ti210  1  0.55201500  0.22304133  0.26479340  1.0
  Ti  Ti211  1  0.55201500  0.55637467  0.26479340  1.0
  Ti  Ti212  1  0.55201500  0.88970800  0.26479340  1.0
  Ti  Ti213  1  0.88534833  0.22304133  0.26479340  1.0
  Ti  Ti214  1  0.88534833  0.55637467  0.26479340  1.0
  Ti  Ti215  1  0.88534833  0.88970800  0.26479340  1.0
  Ti  Ti216  1  0.22304133  0.00435967  0.32638740  1.0
  Ti  Ti217  1  0.22304133  0.33769300  0.32638740  1.0
  Ti  Ti218  1  0.22304133  0.67102633  0.32638740  1.0
  Ti  Ti219  1  0.55637467  0.00435967  0.32638740  1.0
  Ti  Ti220  1  0.55637467  0.33769300  0.32638740  1.0
  Ti  Ti221  1  0.55637467  0.67102633  0.32638740  1.0
  Ti  Ti222  1  0.88970800  0.00435967  0.32638740  1.0
  Ti  Ti223  1  0.88970800  0.33769300  0.32638740  1.0
  Ti  Ti224  1  0.88970800  0.67102633  0.32638740  1.0
  Ti  Ti225  1  0.32897367  0.21868167  0.32638740  1.0
  Ti  Ti226  1  0.32897367  0.55201500  0.32638740  1.0
  Ti  Ti227  1  0.32897367  0.88534833  0.32638740  1.0
  Ti  Ti228  1  0.66230700  0.21868167  0.32638740  1.0
  Ti  Ti229  1  0.66230700  0.55201500  0.32638740  1.0
  Ti  Ti230  1  0.66230700  0.88534833  0.32638740  1.0
  Ti  Ti231  1  0.99564033  0.21868167  0.32638740  1.0
  Ti  Ti232  1  0.99564033  0.55201500  0.32638740  1.0
  Ti  Ti233  1  0.99564033  0.88534833  0.32638740  1.0
  Ti  Ti234  1  0.11465167  0.11029200  0.32638740  1.0
  Ti  Ti235  1  0.11465167  0.44362533  0.32638740  1.0
  Ti  Ti236  1  0.11465167  0.77695867  0.32638740  1.0
  Ti  Ti237  1  0.44798500  0.11029200  0.32638740  1.0
  Ti  Ti238  1  0.44798500  0.44362533  0.32638740  1.0
  Ti  Ti239  1  0.44798500  0.77695867  0.32638740  1.0
  Ti  Ti240  1  0.78131833  0.11029200  0.32638740  1.0
  Ti  Ti241  1  0.78131833  0.44362533  0.32638740  1.0
  Ti  Ti242  1  0.78131833  0.77695867  0.32638740  1.0
  Ni  Ni243  1  0.00000000  0.00000000  0.29559040  1.0
  Ni  Ni244  1  0.00000000  0.33333333  0.29559040  1.0
  Ni  Ni245  1  0.00000000  0.66666667  0.29559040  1.0
  Ni  Ni246  1  0.33333333  0.00000000  0.29559040  1.0
  Ni  Ni247  1  0.33333333  0.33333333  0.29559040  1.0
  Ni  Ni248  1  0.33333333  0.66666667  0.29559040  1.0
  Ni  Ni249  1  0.66666667  0.00000000  0.29559040  1.0
  Ni  Ni250  1  0.66666667  0.33333333  0.29559040  1.0
  Ni  Ni251  1  0.66666667  0.66666667  0.29559040  1.0
  Ni  Ni252  1  0.11111111  0.22222222  0.31284860  1.0
  Ni  Ni253  1  0.11111111  0.55555556  0.31284860  1.0
  Ni  Ni254  1  0.11111111  0.88888889  0.31284860  1.0
  Ni  Ni255  1  0.44444444  0.22222222  0.31284860  1.0
  Ni  Ni256  1  0.44444444  0.55555556  0.31284860  1.0
  Ni  Ni257  1  0.44444444  0.88888889  0.31284860  1.0
  Ni  Ni258  1  0.77777778  0.22222222  0.31284860  1.0
  Ni  Ni259  1  0.77777778  0.55555556  0.31284860  1.0
  Ni  Ni260  1  0.77777778  0.88888889  0.31284860  1.0
  Ni  Ni261  1  0.22222222  0.11111111  0.27833220  1.0
  Ni  Ni262  1  0.22222222  0.44444444  0.27833220  1.0
  Ni  Ni263  1  0.22222222  0.77777778  0.27833220  1.0
  Ni  Ni264  1  0.55555556  0.11111111  0.27833220  1.0
  Ni  Ni265  1  0.55555556  0.44444444  0.27833220  1.0
  Ni  Ni266  1  0.55555556  0.77777778  0.27833220  1.0
  Ni  Ni267  1  0.88888889  0.11111111  0.27833220  1.0
  Ni  Ni268  1  0.88888889  0.44444444  0.27833220  1.0
  Ni  Ni269  1  0.88888889  0.77777778  0.27833220  1.0
  Ni  Ni270  1  0.10462000  0.32460300  0.36739180  1.0
  Ni  Ni271  1  0.10462000  0.65793633  0.36739180  1.0
  Ni  Ni272  1  0.10462000  0.99126967  0.36739180  1.0
  Ni  Ni273  1  0.43795333  0.32460300  0.36739180  1.0
  Ni  Ni274  1  0.43795333  0.65793633  0.36739180  1.0
  Ni  Ni275  1  0.43795333  0.99126967  0.36739180  1.0
  Ni  Ni276  1  0.77128667  0.32460300  0.36739180  1.0
  Ni  Ni277  1  0.77128667  0.65793633  0.36739180  1.0
  Ni  Ni278  1  0.77128667  0.99126967  0.36739180  1.0
  Ni  Ni279  1  0.00873033  0.11335033  0.36739180  1.0
  Ni  Ni280  1  0.00873033  0.44668367  0.36739180  1.0
  Ni  Ni281  1  0.00873033  0.78001700  0.36739180  1.0
  Ni  Ni282  1  0.34206367  0.11335033  0.36739180  1.0
  Ni  Ni283  1  0.34206367  0.44668367  0.36739180  1.0
  Ni  Ni284  1  0.34206367  0.78001700  0.36739180  1.0
  Ni  Ni285  1  0.67539700  0.11335033  0.36739180  1.0
  Ni  Ni286  1  0.67539700  0.44668367  0.36739180  1.0
  Ni  Ni287  1  0.67539700  0.78001700  0.36739180  1.0
  Ni  Ni288  1  0.21998300  0.22871333  0.36739180  1.0
  Ni  Ni289  1  0.21998300  0.56204667  0.36739180  1.0
  Ni  Ni290  1  0.21998300  0.89538000  0.36739180  1.0
  Ni  Ni291  1  0.55331633  0.22871333  0.36739180  1.0
  Ni  Ni292  1  0.55331633  0.56204667  0.36739180  1.0
  Ni  Ni293  1  0.55331633  0.89538000  0.36739180  1.0
  Ni  Ni294  1  0.88664967  0.22871333  0.36739180  1.0
  Ni  Ni295  1  0.88664967  0.56204667  0.36739180  1.0
  Ni  Ni296  1  0.88664967  0.89538000  0.36739180  1.0
  Ni  Ni297  1  0.22871333  0.00873033  0.22378900  1.0
  Ni  Ni298  1  0.22871333  0.34206367  0.22378900  1.0
  Ni  Ni299  1  0.22871333  0.67539700  0.22378900  1.0
  Ni  Ni300  1  0.56204667  0.00873033  0.22378900  1.0
  Ni  Ni301  1  0.56204667  0.34206367  0.22378900  1.0
  Ni  Ni302  1  0.56204667  0.67539700  0.22378900  1.0
  Ni  Ni303  1  0.89538000  0.00873033  0.22378900  1.0
  Ni  Ni304  1  0.89538000  0.34206367  0.22378900  1.0
  Ni  Ni305  1  0.89538000  0.67539700  0.22378900  1.0
  Ni  Ni306  1  0.32460300  0.21998300  0.22378900  1.0
  Ni  Ni307  1  0.32460300  0.55331633  0.22378900  1.0
  Ni  Ni308  1  0.32460300  0.88664967  0.22378900  1.0
  Ni  Ni309  1  0.65793633  0.21998300  0.22378900  1.0
  Ni  Ni310  1  0.65793633  0.55331633  0.22378900  1.0
  Ni  Ni311  1  0.65793633  0.88664967  0.22378900  1.0
  Ni  Ni312  1  0.99126967  0.21998300  0.22378900  1.0
  Ni  Ni313  1  0.99126967  0.55331633  0.22378900  1.0
  Ni  Ni314  1  0.99126967  0.88664967  0.22378900  1.0
  Ni  Ni315  1  0.11335033  0.10462000  0.22378900  1.0
  Ni  Ni316  1  0.11335033  0.43795333  0.22378900  1.0
  Ni  Ni317  1  0.11335033  0.77128667  0.22378900  1.0
  Ni  Ni318  1  0.44668367  0.10462000  0.22378900  1.0
  Ni  Ni319  1  0.44668367  0.43795333  0.22378900  1.0
  Ni  Ni320  1  0.44668367  0.77128667  0.22378900  1.0
  Ni  Ni321  1  0.78001700  0.10462000  0.22378900  1.0
  Ni  Ni322  1  0.78001700  0.43795333  0.22378900  1.0
  Ni  Ni323  1  0.78001700  0.77128667  0.22378900  1.0
