# generated using pymatgen
data_TiNi
_symmetry_space_group_name_H-M   'P 1'
_cell_length_a   15.82612611
_cell_length_b   19.54307316
_cell_length_c   27.86266376
_cell_angle_alpha   91.31166801
_cell_angle_beta   91.61980256
_cell_angle_gamma   92.30967903
_symmetry_Int_Tables_number   1
_chemical_formula_structural   TiNi
_chemical_formula_sum   'Ti144 Ni144'
_cell_volume   8604.74177982
_cell_formula_units_Z   144
loop_
 _symmetry_equiv_pos_site_id
 _symmetry_equiv_pos_as_xyz
  1  'x, y, z'
loop_
 _atom_site_type_symbol
 _atom_site_label
 _atom_site_symmetry_multiplicity
 _atom_site_fract_x
 _atom_site_fract_y
 _atom_site_fract_z
 _atom_site_occupancy
  Ni  Ni0  1  0.08333333  0.31944444  0.93055556  1.0
  Ni  Ni1  1  0.08333333  0.65277778  0.93055556  1.0
  Ni  Ni2  1  0.08333333  0.98611111  0.93055556  1.0
  Ni  Ni3  1  0.41666667  0.31944444  0.93055556  1.0
  Ni  Ni4  1  0.41666667  0.65277778  0.93055556  1.0
  Ni  Ni5  1  0.41666667  0.98611111  0.93055556  1.0
  Ni  Ni6  1  0.75000000  0.31944444  0.93055556  1.0
  Ni  Ni7  1  0.75000000  0.65277778  0.93055556  1.0
  Ni  Ni8  1  0.75000000  0.98611111  0.93055556  1.0
  Ni  Ni9  1  0.25000000  0.09722222  0.98611111  1.0
  Ni  Ni10  1  0.25000000  0.43055556  0.98611111  1.0
  Ni  Ni11  1  0.25000000  0.76388889  0.98611111  1.0
  Ni  Ni12  1  0.58333333  0.09722222  0.98611111  1.0
  Ni  Ni13  1  0.58333333  0.43055556  0.98611111  1.0
  Ni  Ni14  1  0.58333333  0.76388889  0.98611111  1.0
  Ni  Ni15  1  0.91666667  0.09722222  0.98611111  1.0
  Ni  Ni16  1  0.91666667  0.43055556  0.98611111  1.0
  Ni  Ni17  1  0.91666667  0.76388889  0.98611111  1.0
  Ni  Ni18  1  0.00000000  0.09722222  0.90277778  1.0
  Ni  Ni19  1  0.00000000  0.43055556  0.90277778  1.0
  Ni  Ni20  1  0.00000000  0.76388889  0.90277778  1.0
  Ni  Ni21  1  0.33333333  0.09722222  0.90277778  1.0
  Ni  Ni22  1  0.33333333  0.43055556  0.90277778  1.0
  Ni  Ni23  1  0.33333333  0.76388889  0.90277778  1.0
  Ni  Ni24  1  0.66666667  0.09722222  0.90277778  1.0
  Ni  Ni25  1  0.66666667  0.43055556  0.90277778  1.0
  Ni  Ni26  1  0.66666667  0.76388889  0.90277778  1.0
  Ni  Ni27  1  0.16666667  0.20833333  0.95833333  1.0
  Ni  Ni28  1  0.16666667  0.54166667  0.95833333  1.0
  Ni  Ni29  1  0.16666667  0.87500000  0.95833333  1.0
  Ni  Ni30  1  0.50000000  0.20833333  0.95833333  1.0
  Ni  Ni31  1  0.50000000  0.54166667  0.95833333  1.0
  Ni  Ni32  1  0.50000000  0.87500000  0.95833333  1.0
  Ni  Ni33  1  0.83333333  0.20833333  0.95833333  1.0
  Ni  Ni34  1  0.83333333  0.54166667  0.95833333  1.0
  Ni  Ni35  1  0.83333333  0.87500000  0.95833333  1.0
  Ni  Ni36  1  0.08333333  0.09722222  0.81944444  1.0
  Ni  Ni37  1  0.08333333  0.43055556  0.81944444  1.0
  Ni  Ni38  1  0.08333333  0.76388889  0.81944444  1.0
  Ni  Ni39  1  0.41666667  0.09722222  0.81944444  1.0
  Ni  Ni40  1  0.41666667  0.43055556  0.81944444  1.0
  Ni  Ni41  1  0.41666667  0.76388889  0.81944444  1.0
  Ni  Ni42  1  0.75000000  0.09722222  0.81944444  1.0
  Ni  Ni43  1  0.75000000  0.43055556  0.81944444  1.0
  Ni  Ni44  1  0.75000000  0.76388889  0.81944444  1.0
  Ni  Ni45  1  0.25000000  0.20833333  0.87500000  1.0
  Ni  Ni46  1  0.25000000  0.54166667  0.87500000  1.0
  Ni  Ni47  1  0.25000000  0.87500000  0.87500000  1.0
  Ni  Ni48  1  0.58333333  0.20833333  0.87500000  1.0
  Ni  Ni49  1  0.58333333  0.54166667  0.87500000  1.0
  Ni  Ni50  1  0.58333333  0.87500000  0.87500000  1.0
  Ni  Ni51  1  0.91666667  0.20833333  0.87500000  1.0
  Ni  Ni52  1  0.91666667  0.54166667  0.87500000  1.0
  Ni  Ni53  1  0.91666667  0.87500000  0.87500000  1.0
  Ni  Ni54  1  0.00000000  0.20833333  0.79166667  1.0
  Ni  Ni55  1  0.00000000  0.54166667  0.79166667  1.0
  Ni  Ni56  1  0.00000000  0.87500000  0.79166667  1.0
  Ni  Ni57  1  0.33333333  0.20833333  0.79166667  1.0
  Ni  Ni58  1  0.33333333  0.54166667  0.79166667  1.0
  Ni  Ni59  1  0.33333333  0.87500000  0.79166667  1.0
  Ni  Ni60  1  0.66666667  0.20833333  0.79166667  1.0
  Ni  Ni61  1  0.66666667  0.54166667  0.79166667  1.0
  Ni  Ni62  1  0.66666667  0.87500000  0.79166667  1.0
  Ni  Ni63  1  0.16666667  0.31944444  0.84722222  1.0
  Ni  Ni64  1  0.16666667  0.65277778  0.84722222  1.0
  Ni  Ni65  1  0.16666667  0.98611111  0.84722222  1.0
  Ni  Ni66  1  0.50000000  0.31944444  0.84722222  1.0
  Ni  Ni67  1  0.50000000  0.65277778  0.84722222  1.0
  Ni  Ni68  1  0.50000000  0.98611111  0.84722222  1.0
  Ni  Ni69  1  0.83333333  0.31944444  0.84722222  1.0
  Ni  Ni70  1  0.83333333  0.65277778  0.84722222  1.0
  Ni  Ni71  1  0.83333333  0.98611111  0.84722222  1.0
  Ni  Ni72  1  0.08333333  0.20833333  0.70833333  1.0
  Ni  Ni73  1  0.08333333  0.54166667  0.70833333  1.0
  Ni  Ni74  1  0.08333333  0.87500000  0.70833333  1.0
  Ni  Ni75  1  0.41666667  0.20833333  0.70833333  1.0
  Ni  Ni76  1  0.41666667  0.54166667  0.70833333  1.0
  Ni  Ni77  1  0.41666667  0.87500000  0.70833333  1.0
  Ni  Ni78  1  0.75000000  0.20833333  0.70833333  1.0
  Ni  Ni79  1  0.75000000  0.54166667  0.70833333  1.0
  Ni  Ni80  1  0.75000000  0.87500000  0.70833333  1.0
  Ni  Ni81  1  0.25000000  0.31944444  0.76388889  1.0
  Ni  Ni82  1  0.25000000  0.65277778  0.76388889  1.0
  Ni  Ni83  1  0.25000000  0.98611111  0.76388889  1.0
  Ni  Ni84  1  0.58333333  0.31944444  0.76388889  1.0
  Ni  Ni85  1  0.58333333  0.65277778  0.76388889  1.0
  Ni  Ni86  1  0.58333333  0.98611111  0.76388889  1.0
  Ni  Ni87  1  0.91666667  0.31944444  0.76388889  1.0
  Ni  Ni88  1  0.91666667  0.65277778  0.76388889  1.0
  Ni  Ni89  1  0.91666667  0.98611111  0.76388889  1.0
  Ni  Ni90  1  0.00000000  0.31944444  0.68055556  1.0
  Ni  Ni91  1  0.00000000  0.65277778  0.68055556  1.0
  Ni  Ni92  1  0.00000000  0.98611111  0.68055556  1.0
  Ni  Ni93  1  0.33333333  0.31944444  0.68055556  1.0
  Ni  Ni94  1  0.33333333  0.65277778  0.68055556  1.0
  Ni  Ni95  1  0.33333333  0.98611111  0.68055556  1.0
  Ni  Ni96  1  0.66666667  0.31944444  0.68055556  1.0
  Ni  Ni97  1  0.66666667  0.65277778  0.68055556  1.0
  Ni  Ni98  1  0.66666667  0.98611111  0.68055556  1.0
  Ni  Ni99  1  0.16666667  0.09722222  0.73611111  1.0
  Ni  Ni100  1  0.16666667  0.43055556  0.73611111  1.0
  Ni  Ni101  1  0.16666667  0.76388889  0.73611111  1.0
  Ni  Ni102  1  0.50000000  0.09722222  0.73611111  1.0
  Ni  Ni103  1  0.50000000  0.43055556  0.73611111  1.0
  Ni  Ni104  1  0.50000000  0.76388889  0.73611111  1.0
  Ni  Ni105  1  0.83333333  0.09722222  0.73611111  1.0
  Ni  Ni106  1  0.83333333  0.43055556  0.73611111  1.0
  Ni  Ni107  1  0.83333333  0.76388889  0.73611111  1.0
  Ni  Ni108  1  0.08333333  0.31944444  0.59722222  1.0
  Ni  Ni109  1  0.08333333  0.65277778  0.59722222  1.0
  Ni  Ni110  1  0.08333333  0.98611111  0.59722222  1.0
  Ni  Ni111  1  0.41666667  0.31944444  0.59722222  1.0
  Ni  Ni112  1  0.41666667  0.65277778  0.59722222  1.0
  Ni  Ni113  1  0.41666667  0.98611111  0.59722222  1.0
  Ni  Ni114  1  0.75000000  0.31944444  0.59722222  1.0
  Ni  Ni115  1  0.75000000  0.65277778  0.59722222  1.0
  Ni  Ni116  1  0.75000000  0.98611111  0.59722222  1.0
  Ni  Ni117  1  0.25000000  0.09722222  0.65277778  1.0
  Ni  Ni118  1  0.25000000  0.43055556  0.65277778  1.0
  Ni  Ni119  1  0.25000000  0.76388889  0.65277778  1.0
  Ni  Ni120  1  0.58333333  0.09722222  0.65277778  1.0
  Ni  Ni121  1  0.58333333  0.43055556  0.65277778  1.0
  Ni  Ni122  1  0.58333333  0.76388889  0.65277778  1.0
  Ni  Ni123  1  0.91666667  0.09722222  0.65277778  1.0
  Ni  Ni124  1  0.91666667  0.43055556  0.65277778  1.0
  Ni  Ni125  1  0.91666667  0.76388889  0.65277778  1.0
  Ni  Ni126  1  0.00000000  0.09722222  0.56944444  1.0
  Ni  Ni127  1  0.00000000  0.43055556  0.56944444  1.0
  Ni  Ni128  1  0.00000000  0.76388889  0.56944444  1.0
  Ni  Ni129  1  0.33333333  0.09722222  0.56944444  1.0
  Ni  Ni130  1  0.33333333  0.43055556  0.56944444  1.0
  Ni  Ni131  1  0.33333333  0.76388889  0.56944444  1.0
  Ni  Ni132  1  0.66666667  0.09722222  0.56944444  1.0
  Ni  Ni133  1  0.66666667  0.43055556  0.56944444  1.0
  Ni  Ni134  1  0.66666667  0.76388889  0.56944444  1.0
  Ni  Ni135  1  0.16666667  0.20833333  0.62500000  1.0
  Ni  Ni136  1  0.16666667  0.54166667  0.62500000  1.0
  Ni  Ni137  1  0.16666667  0.87500000  0.62500000  1.0
  Ni  Ni138  1  0.50000000  0.20833333  0.62500000  1.0
  Ni  Ni139  1  0.50000000  0.54166667  0.62500000  1.0
  Ni  Ni140  1  0.50000000  0.87500000  0.62500000  1.0
  Ni  Ni141  1  0.83333333  0.20833333  0.62500000  1.0
  Ni  Ni142  1  0.83333333  0.54166667  0.62500000  1.0
  Ni  Ni143  1  0.83333333  0.87500000  0.62500000  1.0
  Ti  Ti144  1  0.25319983  0.32157767  0.93162217  1.0
  Ti  Ti145  1  0.25319983  0.65491100  0.93162217  1.0
  Ti  Ti146  1  0.25319983  0.98824433  0.93162217  1.0
  Ti  Ti147  1  0.58653317  0.32157767  0.93162217  1.0
  Ti  Ti148  1  0.58653317  0.65491100  0.93162217  1.0
  Ti  Ti149  1  0.58653317  0.98824433  0.93162217  1.0
  Ti  Ti150  1  0.91986650  0.32157767  0.93162217  1.0
  Ti  Ti151  1  0.91986650  0.65491100  0.93162217  1.0
  Ti  Ti152  1  0.91986650  0.98824433  0.93162217  1.0
  Ti  Ti153  1  0.08653317  0.09935544  0.98717772  1.0
  Ti  Ti154  1  0.08653317  0.43268878  0.98717772  1.0
  Ti  Ti155  1  0.08653317  0.76602211  0.98717772  1.0
  Ti  Ti156  1  0.41986650  0.09935544  0.98717772  1.0
  Ti  Ti157  1  0.41986650  0.43268878  0.98717772  1.0
  Ti  Ti158  1  0.41986650  0.76602211  0.98717772  1.0
  Ti  Ti159  1  0.75319983  0.09935544  0.98717772  1.0
  Ti  Ti160  1  0.75319983  0.43268878  0.98717772  1.0
  Ti  Ti161  1  0.75319983  0.76602211  0.98717772  1.0
  Ti  Ti162  1  0.33013350  0.20620011  0.95726672  1.0
  Ti  Ti163  1  0.33013350  0.53953344  0.95726672  1.0
  Ti  Ti164  1  0.33013350  0.87286678  0.95726672  1.0
  Ti  Ti165  1  0.66346683  0.20620011  0.95726672  1.0
  Ti  Ti166  1  0.66346683  0.53953344  0.95726672  1.0
  Ti  Ti167  1  0.66346683  0.87286678  0.95726672  1.0
  Ti  Ti168  1  0.99680017  0.20620011  0.95726672  1.0
  Ti  Ti169  1  0.99680017  0.53953344  0.95726672  1.0
  Ti  Ti170  1  0.99680017  0.87286678  0.95726672  1.0
  Ti  Ti171  1  0.16346683  0.09508900  0.90171117  1.0
  Ti  Ti172  1  0.16346683  0.42842233  0.90171117  1.0
  Ti  Ti173  1  0.16346683  0.76175567  0.90171117  1.0
  Ti  Ti174  1  0.49680017  0.09508900  0.90171117  1.0
  Ti  Ti175  1  0.49680017  0.42842233  0.90171117  1.0
  Ti  Ti176  1  0.49680017  0.76175567  0.90171117  1.0
  Ti  Ti177  1  0.83013350  0.09508900  0.90171117  1.0
  Ti  Ti178  1  0.83013350  0.42842233  0.90171117  1.0
  Ti  Ti179  1  0.83013350  0.76175567  0.90171117  1.0
  Ti  Ti180  1  0.25319983  0.09935544  0.82051106  1.0
  Ti  Ti181  1  0.25319983  0.43268878  0.82051106  1.0
  Ti  Ti182  1  0.25319983  0.76602211  0.82051106  1.0
  Ti  Ti183  1  0.58653317  0.09935544  0.82051106  1.0
  Ti  Ti184  1  0.58653317  0.43268878  0.82051106  1.0
  Ti  Ti185  1  0.58653317  0.76602211  0.82051106  1.0
  Ti  Ti186  1  0.91986650  0.09935544  0.82051106  1.0
  Ti  Ti187  1  0.91986650  0.43268878  0.82051106  1.0
  Ti  Ti188  1  0.91986650  0.76602211  0.82051106  1.0
  Ti  Ti189  1  0.08653317  0.21046656  0.87606661  1.0
  Ti  Ti190  1  0.08653317  0.54379989  0.87606661  1.0
  Ti  Ti191  1  0.08653317  0.87713322  0.87606661  1.0
  Ti  Ti192  1  0.41986650  0.21046656  0.87606661  1.0
  Ti  Ti193  1  0.41986650  0.54379989  0.87606661  1.0
  Ti  Ti194  1  0.41986650  0.87713322  0.87606661  1.0
  Ti  Ti195  1  0.75319983  0.21046656  0.87606661  1.0
  Ti  Ti196  1  0.75319983  0.54379989  0.87606661  1.0
  Ti  Ti197  1  0.75319983  0.87713322  0.87606661  1.0
  Ti  Ti198  1  0.33013350  0.31731122  0.84615561  1.0
  Ti  Ti199  1  0.33013350  0.65064456  0.84615561  1.0
  Ti  Ti200  1  0.33013350  0.98397789  0.84615561  1.0
  Ti  Ti201  1  0.66346683  0.31731122  0.84615561  1.0
  Ti  Ti202  1  0.66346683  0.65064456  0.84615561  1.0
  Ti  Ti203  1  0.66346683  0.98397789  0.84615561  1.0
  Ti  Ti204  1  0.99680017  0.31731122  0.84615561  1.0
  Ti  Ti205  1  0.99680017  0.65064456  0.84615561  1.0
  Ti  Ti206  1  0.99680017  0.98397789  0.84615561  1.0
  Ti  Ti207  1  0.16346683  0.20620011  0.79060006  1.0
  Ti  Ti208  1  0.16346683  0.53953344  0.79060006  1.0
  Ti  Ti209  1  0.16346683  0.87286678  0.79060006  1.0
  Ti  Ti210  1  0.49680017  0.20620011  0.79060006  1.0
  Ti  Ti211  1  0.49680017  0.53953344  0.79060006  1.0
  Ti  Ti212  1  0.49680017  0.87286678  0.79060006  1.0
  Ti  Ti213  1  0.83013350  0.20620011  0.79060006  1.0
  Ti  Ti214  1  0.83013350  0.53953344  0.79060006  1.0
  Ti  Ti215  1  0.83013350  0.87286678  0.79060006  1.0
  Ti  Ti216  1  0.25319983  0.21046656  0.70939994  1.0
  Ti  Ti217  1  0.25319983  0.54379989  0.70939994  1.0
  Ti  Ti218  1  0.25319983  0.87713322  0.70939994  1.0
  Ti  Ti219  1  0.58653317  0.21046656  0.70939994  1.0
  Ti  Ti220  1  0.58653317  0.54379989  0.70939994  1.0
  Ti  Ti221  1  0.58653317  0.87713322  0.70939994  1.0
  Ti  Ti222  1  0.91986650  0.21046656  0.70939994  1.0
  Ti  Ti223  1  0.91986650  0.54379989  0.70939994  1.0
  Ti  Ti224  1  0.91986650  0.87713322  0.70939994  1.0
  Ti  Ti225  1  0.08653317  0.32157767  0.76495550  1.0
  Ti  Ti226  1  0.08653317  0.65491100  0.76495550  1.0
  Ti  Ti227  1  0.08653317  0.98824433  0.76495550  1.0
  Ti  Ti228  1  0.41986650  0.32157767  0.76495550  1.0
  Ti  Ti229  1  0.41986650  0.65491100  0.76495550  1.0
  Ti  Ti230  1  0.41986650  0.98824433  0.76495550  1.0
  Ti  Ti231  1  0.75319983  0.32157767  0.76495550  1.0
  Ti  Ti232  1  0.75319983  0.65491100  0.76495550  1.0
  Ti  Ti233  1  0.75319983  0.98824433  0.76495550  1.0
  Ti  Ti234  1  0.33013350  0.09508900  0.73504450  1.0
  Ti  Ti235  1  0.33013350  0.42842233  0.73504450  1.0
  Ti  Ti236  1  0.33013350  0.76175567  0.73504450  1.0
  Ti  Ti237  1  0.66346683  0.09508900  0.73504450  1.0
  Ti  Ti238  1  0.66346683  0.42842233  0.73504450  1.0
  Ti  Ti239  1  0.66346683  0.76175567  0.73504450  1.0
  Ti  Ti240  1  0.99680017  0.09508900  0.73504450  1.0
  Ti  Ti241  1  0.99680017  0.42842233  0.73504450  1.0
  Ti  Ti242  1  0.99680017  0.76175567  0.73504450  1.0
  Ti  Ti243  1  0.16346683  0.31731122  0.67948894  1.0
  Ti  Ti244  1  0.16346683  0.65064456  0.67948894  1.0
  Ti  Ti245  1  0.16346683  0.98397789  0.67948894  1.0
  Ti  Ti246  1  0.49680017  0.31731122  0.67948894  1.0
  Ti  Ti247  1  0.49680017  0.65064456  0.67948894  1.0
  Ti  Ti248  1  0.49680017  0.98397789  0.67948894  1.0
  Ti  Ti249  1  0.83013350  0.31731122  0.67948894  1.0
  Ti  Ti250  1  0.83013350  0.65064456  0.67948894  1.0
  Ti  Ti251  1  0.83013350  0.98397789  0.67948894  1.0
  Ti  Ti252  1  0.25319983  0.32157767  0.59828883  1.0
  Ti  Ti253  1  0.25319983  0.65491100  0.59828883  1.0
  Ti  Ti254  1  0.25319983  0.98824433  0.59828883  1.0
  Ti  Ti255  1  0.58653317  0.32157767  0.59828883  1.0
  Ti  Ti256  1  0.58653317  0.65491100  0.59828883  1.0
  Ti  Ti257  1  0.58653317  0.98824433  0.59828883  1.0
  Ti  Ti258  1  0.91986650  0.32157767  0.59828883  1.0
  Ti  Ti259  1  0.91986650  0.65491100  0.59828883  1.0
  Ti  Ti260  1  0.91986650  0.98824433  0.59828883  1.0
  Ti  Ti261  1  0.08653317  0.09935544  0.65384439  1.0
  Ti  Ti262  1  0.08653317  0.43268878  0.65384439  1.0
  Ti  Ti263  1  0.08653317  0.76602211  0.65384439  1.0
  Ti  Ti264  1  0.41986650  0.09935544  0.65384439  1.0
  Ti  Ti265  1  0.41986650  0.43268878  0.65384439  1.0
  Ti  Ti266  1  0.41986650  0.76602211  0.65384439  1.0
  Ti  Ti267  1  0.75319983  0.09935544  0.65384439  1.0
  Ti  Ti268  1  0.75319983  0.43268878  0.65384439  1.0
  Ti  Ti269  1  0.75319983  0.76602211  0.65384439  1.0
  Ti  Ti270  1  0.33013350  0.20620011  0.62393339  1.0
  Ti  Ti271  1  0.33013350  0.53953344  0.62393339  1.0
  Ti  Ti272  1  0.33013350  0.87286678  0.62393339  1.0
  Ti  Ti273  1  0.66346683  0.20620011  0.62393339  1.0
  Ti  Ti274  1  0.66346683  0.53953344  0.62393339  1.0
  Ti  Ti275  1  0.66346683  0.87286678  0.62393339  1.0
  Ti  Ti276  1  0.99680017  0.20620011  0.62393339  1.0
  Ti  Ti277  1  0.99680017  0.53953344  0.62393339  1.0
  Ti  Ti278  1  0.99680017  0.87286678  0.62393339  1.0
  Ti  Ti279  1  0.16346683  0.09508900  0.56837783  1.0
  Ti  Ti280  1  0.16346683  0.42842233  0.56837783  1.0
  Ti  Ti281  1  0.16346683  0.76175567  0.56837783  1.0
  Ti  Ti282  1  0.49680017  0.09508900  0.56837783  1.0
  Ti  Ti283  1  0.49680017  0.42842233  0.56837783  1.0
  Ti  Ti284  1  0.49680017  0.76175567  0.56837783  1.0
  Ti  Ti285  1  0.83013350  0.09508900  0.56837783  1.0
  Ti  Ti286  1  0.83013350  0.42842233  0.56837783  1.0
  Ti  Ti287  1  0.83013350  0.76175567  0.56837783  1.0
