# generated using pymatgen
data_TiNi
_symmetry_space_group_name_H-M   'P 1'
_cell_length_a   8.74638300
_cell_length_b   18.74571305
_cell_length_c   36.49509000
_cell_angle_alpha   130.46248113
_cell_angle_beta   90.00000000
_cell_angle_gamma   98.29594154
_symmetry_Int_Tables_number   1
_chemical_formula_structural   TiNi
_chemical_formula_sum   'Ti72 Ni72'
_cell_volume   4469.91927900
_cell_formula_units_Z   72
loop_
 _symmetry_equiv_pos_site_id
 _symmetry_equiv_pos_as_xyz
  1  'x, y, z'
loop_
 _atom_site_type_symbol
 _atom_site_label
 _atom_site_symmetry_multiplicity
 _atom_site_fract_x
 _atom_site_fract_y
 _atom_site_fract_z
 _atom_site_occupancy
  Ti  Ti0  1  0.13183900  0.23844667  0.08189139  1.0
  Ti  Ti1  1  0.13183900  0.57178000  0.08189139  1.0
  Ti  Ti2  1  0.13183900  0.90511333  0.08189139  1.0
  Ti  Ti3  1  0.46517233  0.23844667  0.08189139  1.0
  Ti  Ti4  1  0.46517233  0.57178000  0.08189139  1.0
  Ti  Ti5  1  0.46517233  0.90511333  0.08189139  1.0
  Ti  Ti6  1  0.79850567  0.23844667  0.08189139  1.0
  Ti  Ti7  1  0.79850567  0.57178000  0.08189139  1.0
  Ti  Ti8  1  0.79850567  0.90511333  0.08189139  1.0
  Ti  Ti9  1  0.20149433  0.09488667  0.08959361  1.0
  Ti  Ti10  1  0.20149433  0.42822000  0.08959361  1.0
  Ti  Ti11  1  0.20149433  0.76155333  0.08959361  1.0
  Ti  Ti12  1  0.53482767  0.09488667  0.08959361  1.0
  Ti  Ti13  1  0.53482767  0.42822000  0.08959361  1.0
  Ti  Ti14  1  0.53482767  0.76155333  0.08959361  1.0
  Ti  Ti15  1  0.86816100  0.09488667  0.08959361  1.0
  Ti  Ti16  1  0.86816100  0.42822000  0.08959361  1.0
  Ti  Ti17  1  0.86816100  0.76155333  0.08959361  1.0
  Ni  Ni18  1  0.01888367  0.05732500  0.02151750  1.0
  Ni  Ni19  1  0.01888367  0.39065833  0.02151750  1.0
  Ni  Ni20  1  0.01888367  0.72399167  0.02151750  1.0
  Ni  Ni21  1  0.35221700  0.05732500  0.02151750  1.0
  Ni  Ni22  1  0.35221700  0.39065833  0.02151750  1.0
  Ni  Ni23  1  0.35221700  0.72399167  0.02151750  1.0
  Ni  Ni24  1  0.68555033  0.05732500  0.02151750  1.0
  Ni  Ni25  1  0.68555033  0.39065833  0.02151750  1.0
  Ni  Ni26  1  0.68555033  0.72399167  0.02151750  1.0
  Ni  Ni27  1  0.31444967  0.27600833  0.03885639  1.0
  Ni  Ni28  1  0.31444967  0.60934167  0.03885639  1.0
  Ni  Ni29  1  0.31444967  0.94267500  0.03885639  1.0
  Ni  Ni30  1  0.64778300  0.27600833  0.03885639  1.0
  Ni  Ni31  1  0.64778300  0.60934167  0.03885639  1.0
  Ni  Ni32  1  0.64778300  0.94267500  0.03885639  1.0
  Ni  Ni33  1  0.98111633  0.27600833  0.03885639  1.0
  Ni  Ni34  1  0.98111633  0.60934167  0.03885639  1.0
  Ni  Ni35  1  0.98111633  0.94267500  0.03885639  1.0
  Ti  Ti36  1  0.13183900  0.23844667  0.19300250  1.0
  Ti  Ti37  1  0.13183900  0.57178000  0.19300250  1.0
  Ti  Ti38  1  0.13183900  0.90511333  0.19300250  1.0
  Ti  Ti39  1  0.46517233  0.23844667  0.19300250  1.0
  Ti  Ti40  1  0.46517233  0.57178000  0.19300250  1.0
  Ti  Ti41  1  0.46517233  0.90511333  0.19300250  1.0
  Ti  Ti42  1  0.79850567  0.23844667  0.19300250  1.0
  Ti  Ti43  1  0.79850567  0.57178000  0.19300250  1.0
  Ti  Ti44  1  0.79850567  0.90511333  0.19300250  1.0
  Ti  Ti45  1  0.20149433  0.09488667  0.20070472  1.0
  Ti  Ti46  1  0.20149433  0.42822000  0.20070472  1.0
  Ti  Ti47  1  0.20149433  0.76155333  0.20070472  1.0
  Ti  Ti48  1  0.53482767  0.09488667  0.20070472  1.0
  Ti  Ti49  1  0.53482767  0.42822000  0.20070472  1.0
  Ti  Ti50  1  0.53482767  0.76155333  0.20070472  1.0
  Ti  Ti51  1  0.86816100  0.09488667  0.20070472  1.0
  Ti  Ti52  1  0.86816100  0.42822000  0.20070472  1.0
  Ti  Ti53  1  0.86816100  0.76155333  0.20070472  1.0
  Ni  Ni54  1  0.01888367  0.05732500  0.13262861  1.0
  Ni  Ni55  1  0.01888367  0.39065833  0.13262861  1.0
  Ni  Ni56  1  0.01888367  0.72399167  0.13262861  1.0
  Ni  Ni57  1  0.35221700  0.05732500  0.13262861  1.0
  Ni  Ni58  1  0.35221700  0.39065833  0.13262861  1.0
  Ni  Ni59  1  0.35221700  0.72399167  0.13262861  1.0
  Ni  Ni60  1  0.68555033  0.05732500  0.13262861  1.0
  Ni  Ni61  1  0.68555033  0.39065833  0.13262861  1.0
  Ni  Ni62  1  0.68555033  0.72399167  0.13262861  1.0
  Ni  Ni63  1  0.31444967  0.27600833  0.14996750  1.0
  Ni  Ni64  1  0.31444967  0.60934167  0.14996750  1.0
  Ni  Ni65  1  0.31444967  0.94267500  0.14996750  1.0
  Ni  Ni66  1  0.64778300  0.27600833  0.14996750  1.0
  Ni  Ni67  1  0.64778300  0.60934167  0.14996750  1.0
  Ni  Ni68  1  0.64778300  0.94267500  0.14996750  1.0
  Ni  Ni69  1  0.98111633  0.27600833  0.14996750  1.0
  Ni  Ni70  1  0.98111633  0.60934167  0.14996750  1.0
  Ni  Ni71  1  0.98111633  0.94267500  0.14996750  1.0
  Ti  Ti72  1  0.13183900  0.23844667  0.30411361  1.0
  Ti  Ti73  1  0.13183900  0.57178000  0.30411361  1.0
  Ti  Ti74  1  0.13183900  0.90511333  0.30411361  1.0
  Ti  Ti75  1  0.46517233  0.23844667  0.30411361  1.0
  Ti  Ti76  1  0.46517233  0.57178000  0.30411361  1.0
  Ti  Ti77  1  0.46517233  0.90511333  0.30411361  1.0
  Ti  Ti78  1  0.79850567  0.23844667  0.30411361  1.0
  Ti  Ti79  1  0.79850567  0.57178000  0.30411361  1.0
  Ti  Ti80  1  0.79850567  0.90511333  0.30411361  1.0
  Ti  Ti81  1  0.20149433  0.09488667  0.31181583  1.0
  Ti  Ti82  1  0.20149433  0.42822000  0.31181583  1.0
  Ti  Ti83  1  0.20149433  0.76155333  0.31181583  1.0
  Ti  Ti84  1  0.53482767  0.09488667  0.31181583  1.0
  Ti  Ti85  1  0.53482767  0.42822000  0.31181583  1.0
  Ti  Ti86  1  0.53482767  0.76155333  0.31181583  1.0
  Ti  Ti87  1  0.86816100  0.09488667  0.31181583  1.0
  Ti  Ti88  1  0.86816100  0.42822000  0.31181583  1.0
  Ti  Ti89  1  0.86816100  0.76155333  0.31181583  1.0
  Ni  Ni90  1  0.01888367  0.05732500  0.24373972  1.0
  Ni  Ni91  1  0.01888367  0.39065833  0.24373972  1.0
  Ni  Ni92  1  0.01888367  0.72399167  0.24373972  1.0
  Ni  Ni93  1  0.35221700  0.05732500  0.24373972  1.0
  Ni  Ni94  1  0.35221700  0.39065833  0.24373972  1.0
  Ni  Ni95  1  0.35221700  0.72399167  0.24373972  1.0
  Ni  Ni96  1  0.68555033  0.05732500  0.24373972  1.0
  Ni  Ni97  1  0.68555033  0.39065833  0.24373972  1.0
  Ni  Ni98  1  0.68555033  0.72399167  0.24373972  1.0
  Ni  Ni99  1  0.31444967  0.27600833  0.26107861  1.0
  Ni  Ni100  1  0.31444967  0.60934167  0.26107861  1.0
  Ni  Ni101  1  0.31444967  0.94267500  0.26107861  1.0
  Ni  Ni102  1  0.64778300  0.27600833  0.26107861  1.0
  Ni  Ni103  1  0.64778300  0.60934167  0.26107861  1.0
  Ni  Ni104  1  0.64778300  0.94267500  0.26107861  1.0
  Ni  Ni105  1  0.98111633  0.27600833  0.26107861  1.0
  Ni  Ni106  1  0.98111633  0.60934167  0.26107861  1.0
  Ni  Ni107  1  0.98111633  0.94267500  0.26107861  1.0
  Ti  Ti108  1  0.13183900  0.23844667  0.41522472  1.0
  Ti  Ti109  1  0.13183900  0.57178000  0.41522472  1.0
  Ti  Ti110  1  0.13183900  0.90511333  0.41522472  1.0
  Ti  Ti111  1  0.46517233  0.23844667  0.41522472  1.0
  Ti  Ti112  1  0.46517233  0.57178000  0.41522472  1.0
  Ti  Ti113  1  0.46517233  0.90511333  0.41522472  1.0
  Ti  Ti114  1  0.79850567  0.23844667  0.41522472  1.0
  Ti  Ti115  1  0.79850567  0.57178000  0.41522472  1.0
  Ti  Ti116  1  0.79850567  0.90511333  0.41522472  1.0
  Ti  Ti117  1  0.20149433  0.09488667  0.42292694  1.0
  Ti  Ti118  1  0.20149433  0.42822000  0.42292694  1.0
  Ti  Ti119  1  0.20149433  0.76155333  0.42292694  1.0
  Ti  Ti120  1  0.53482767  0.09488667  0.42292694  1.0
  Ti  Ti121  1  0.53482767  0.42822000  0.42292694  1.0
  Ti  Ti122  1  0.53482767  0.76155333  0.42292694  1.0
  Ti  Ti123  1  0.86816100  0.09488667  0.42292694  1.0
  Ti  Ti124  1  0.86816100  0.42822000  0.42292694  1.0
  Ti  Ti125  1  0.86816100  0.76155333  0.42292694  1.0
  Ni  Ni126  1  0.01888367  0.05732500  0.35485083  1.0
  Ni  Ni127  1  0.01888367  0.39065833  0.35485083  1.0
  Ni  Ni128  1  0.01888367  0.72399167  0.35485083  1.0
  Ni  Ni129  1  0.35221700  0.05732500  0.35485083  1.0
  Ni  Ni130  1  0.35221700  0.39065833  0.35485083  1.0
  Ni  Ni131  1  0.35221700  0.72399167  0.35485083  1.0
  Ni  Ni132  1  0.68555033  0.05732500  0.35485083  1.0
  Ni  Ni133  1  0.68555033  0.39065833  0.35485083  1.0
  Ni  Ni134  1  0.68555033  0.72399167  0.35485083  1.0
  Ni  Ni135  1  0.31444967  0.27600833  0.37218972  1.0
  Ni  Ni136  1  0.31444967  0.60934167  0.37218972  1.0
  Ni  Ni137  1  0.31444967  0.94267500  0.37218972  1.0
  Ni  Ni138  1  0.64778300  0.27600833  0.37218972  1.0
  Ni  Ni139  1  0.64778300  0.60934167  0.37218972  1.0
  Ni  Ni140  1  0.64778300  0.94267500  0.37218972  1.0
  Ni  Ni141  1  0.98111633  0.27600833  0.37218972  1.0
  Ni  Ni142  1  0.98111633  0.60934167  0.37218972  1.0
  Ni  Ni143  1  0.98111633  0.94267500  0.37218972  1.0
