# generated using pymatgen
data_TiNi
_symmetry_space_group_name_H-M   'P 1'
_cell_length_a   18.74571305
_cell_length_b   21.79941426
_cell_length_c   29.96588446
_cell_angle_alpha   96.55666860
_cell_angle_beta   91.58570561
_cell_angle_gamma   101.15849383
_symmetry_Int_Tables_number   1
_chemical_formula_structural   TiNi
_chemical_formula_sum   'Ti180 Ni180'
_cell_volume   11919.78474401
_cell_formula_units_Z   180
loop_
 _symmetry_equiv_pos_site_id
 _symmetry_equiv_pos_as_xyz
  1  'x, y, z'
loop_
 _atom_site_type_symbol
 _atom_site_label
 _atom_site_symmetry_multiplicity
 _atom_site_fract_x
 _atom_site_fract_y
 _atom_site_fract_z
 _atom_site_occupancy
  Ni  Ni0  1  0.01300417  0.13135929  0.06103013  1.0
  Ni  Ni1  1  0.01300417  0.46469262  0.06103013  1.0
  Ni  Ni2  1  0.01300417  0.79802596  0.06103013  1.0
  Ni  Ni3  1  0.34633750  0.13135929  0.06103013  1.0
  Ni  Ni4  1  0.34633750  0.46469262  0.06103013  1.0
  Ni  Ni5  1  0.34633750  0.79802596  0.06103013  1.0
  Ni  Ni6  1  0.67967083  0.13135929  0.06103012  1.0
  Ni  Ni7  1  0.67967083  0.46469262  0.06103013  1.0
  Ni  Ni8  1  0.67967083  0.79802596  0.06103013  1.0
  Ni  Ni9  1  0.17967083  0.25635929  0.01936346  1.0
  Ni  Ni10  1  0.17967083  0.58969263  0.01936346  1.0
  Ni  Ni11  1  0.17967083  0.92302596  0.01936346  1.0
  Ni  Ni12  1  0.51300417  0.25635929  0.01936346  1.0
  Ni  Ni13  1  0.51300417  0.58969263  0.01936346  1.0
  Ni  Ni14  1  0.51300417  0.92302596  0.01936346  1.0
  Ni  Ni15  1  0.84633750  0.25635929  0.01936346  1.0
  Ni  Ni16  1  0.84633750  0.58969263  0.01936346  1.0
  Ni  Ni17  1  0.84633750  0.92302596  0.01936346  1.0
  Ni  Ni18  1  0.32032917  0.28530738  0.02230321  1.0
  Ni  Ni19  1  0.32032917  0.61864071  0.02230321  1.0
  Ni  Ni20  1  0.32032917  0.95197404  0.02230321  1.0
  Ni  Ni21  1  0.65366250  0.28530738  0.02230321  1.0
  Ni  Ni22  1  0.65366250  0.61864071  0.02230321  1.0
  Ni  Ni23  1  0.65366250  0.95197404  0.02230321  1.0
  Ni  Ni24  1  0.98699583  0.28530738  0.02230321  1.0
  Ni  Ni25  1  0.98699583  0.61864071  0.02230321  1.0
  Ni  Ni26  1  0.98699583  0.95197404  0.02230321  1.0
  Ni  Ni27  1  0.15366250  0.16030738  0.06396987  1.0
  Ni  Ni28  1  0.15366250  0.49364071  0.06396988  1.0
  Ni  Ni29  1  0.15366250  0.82697404  0.06396988  1.0
  Ni  Ni30  1  0.48699583  0.16030738  0.06396987  1.0
  Ni  Ni31  1  0.48699583  0.49364071  0.06396988  1.0
  Ni  Ni32  1  0.48699583  0.82697404  0.06396988  1.0
  Ni  Ni33  1  0.82032917  0.16030738  0.06396987  1.0
  Ni  Ni34  1  0.82032917  0.49364071  0.06396987  1.0
  Ni  Ni35  1  0.82032917  0.82697404  0.06396988  1.0
  Ni  Ni36  1  0.01300417  0.21469262  0.14436346  1.0
  Ni  Ni37  1  0.01300417  0.54802596  0.14436346  1.0
  Ni  Ni38  1  0.01300417  0.88135929  0.14436346  1.0
  Ni  Ni39  1  0.34633750  0.21469262  0.14436346  1.0
  Ni  Ni40  1  0.34633750  0.54802596  0.14436346  1.0
  Ni  Ni41  1  0.34633750  0.88135929  0.14436346  1.0
  Ni  Ni42  1  0.67967083  0.21469262  0.14436346  1.0
  Ni  Ni43  1  0.67967083  0.54802596  0.14436346  1.0
  Ni  Ni44  1  0.67967083  0.88135929  0.14436346  1.0
  Ni  Ni45  1  0.17967083  0.00635929  0.10269679  1.0
  Ni  Ni46  1  0.17967083  0.33969262  0.10269679  1.0
  Ni  Ni47  1  0.17967083  0.67302596  0.10269679  1.0
  Ni  Ni48  1  0.51300417  0.00635929  0.10269679  1.0
  Ni  Ni49  1  0.51300417  0.33969262  0.10269679  1.0
  Ni  Ni50  1  0.51300417  0.67302596  0.10269679  1.0
  Ni  Ni51  1  0.84633750  0.00635929  0.10269679  1.0
  Ni  Ni52  1  0.84633750  0.33969262  0.10269679  1.0
  Ni  Ni53  1  0.84633750  0.67302596  0.10269679  1.0
  Ni  Ni54  1  0.32032917  0.03530738  0.10563654  1.0
  Ni  Ni55  1  0.32032917  0.36864071  0.10563654  1.0
  Ni  Ni56  1  0.32032917  0.70197404  0.10563654  1.0
  Ni  Ni57  1  0.65366250  0.03530738  0.10563654  1.0
  Ni  Ni58  1  0.65366250  0.36864071  0.10563654  1.0
  Ni  Ni59  1  0.65366250  0.70197404  0.10563654  1.0
  Ni  Ni60  1  0.98699583  0.03530738  0.10563654  1.0
  Ni  Ni61  1  0.98699583  0.36864071  0.10563654  1.0
  Ni  Ni62  1  0.98699583  0.70197404  0.10563654  1.0
  Ni  Ni63  1  0.15366250  0.24364071  0.14730321  1.0
  Ni  Ni64  1  0.15366250  0.57697404  0.14730321  1.0
  Ni  Ni65  1  0.15366250  0.91030738  0.14730321  1.0
  Ni  Ni66  1  0.48699583  0.24364071  0.14730321  1.0
  Ni  Ni67  1  0.48699583  0.57697404  0.14730321  1.0
  Ni  Ni68  1  0.48699583  0.91030738  0.14730321  1.0
  Ni  Ni69  1  0.82032917  0.24364071  0.14730321  1.0
  Ni  Ni70  1  0.82032917  0.57697404  0.14730321  1.0
  Ni  Ni71  1  0.82032917  0.91030738  0.14730321  1.0
  Ni  Ni72  1  0.01300417  0.29802596  0.22769679  1.0
  Ni  Ni73  1  0.01300417  0.63135929  0.22769679  1.0
  Ni  Ni74  1  0.01300417  0.96469262  0.22769679  1.0
  Ni  Ni75  1  0.34633750  0.29802596  0.22769679  1.0
  Ni  Ni76  1  0.34633750  0.63135929  0.22769679  1.0
  Ni  Ni77  1  0.34633750  0.96469262  0.22769679  1.0
  Ni  Ni78  1  0.67967083  0.29802596  0.22769679  1.0
  Ni  Ni79  1  0.67967083  0.63135929  0.22769679  1.0
  Ni  Ni80  1  0.67967083  0.96469262  0.22769679  1.0
  Ni  Ni81  1  0.17967083  0.08969262  0.18603012  1.0
  Ni  Ni82  1  0.17967083  0.42302596  0.18603012  1.0
  Ni  Ni83  1  0.17967083  0.75635929  0.18603012  1.0
  Ni  Ni84  1  0.51300417  0.08969262  0.18603012  1.0
  Ni  Ni85  1  0.51300417  0.42302596  0.18603012  1.0
  Ni  Ni86  1  0.51300417  0.75635929  0.18603012  1.0
  Ni  Ni87  1  0.84633750  0.08969262  0.18603012  1.0
  Ni  Ni88  1  0.84633750  0.42302596  0.18603012  1.0
  Ni  Ni89  1  0.84633750  0.75635929  0.18603012  1.0
  Ni  Ni90  1  0.32032917  0.11864071  0.18896987  1.0
  Ni  Ni91  1  0.32032917  0.45197404  0.18896987  1.0
  Ni  Ni92  1  0.32032917  0.78530737  0.18896987  1.0
  Ni  Ni93  1  0.65366250  0.11864071  0.18896987  1.0
  Ni  Ni94  1  0.65366250  0.45197404  0.18896987  1.0
  Ni  Ni95  1  0.65366250  0.78530737  0.18896987  1.0
  Ni  Ni96  1  0.98699583  0.11864071  0.18896987  1.0
  Ni  Ni97  1  0.98699583  0.45197404  0.18896987  1.0
  Ni  Ni98  1  0.98699583  0.78530737  0.18896987  1.0
  Ni  Ni99  1  0.15366250  0.32697404  0.23063654  1.0
  Ni  Ni100  1  0.15366250  0.66030738  0.23063654  1.0
  Ni  Ni101  1  0.15366250  0.99364071  0.23063654  1.0
  Ni  Ni102  1  0.48699583  0.32697404  0.23063654  1.0
  Ni  Ni103  1  0.48699583  0.66030738  0.23063654  1.0
  Ni  Ni104  1  0.48699583  0.99364071  0.23063654  1.0
  Ni  Ni105  1  0.82032917  0.32697404  0.23063654  1.0
  Ni  Ni106  1  0.82032917  0.66030738  0.23063654  1.0
  Ni  Ni107  1  0.82032917  0.99364071  0.23063654  1.0
  Ni  Ni108  1  0.01300417  0.04802596  0.31103012  1.0
  Ni  Ni109  1  0.01300417  0.38135929  0.31103012  1.0
  Ni  Ni110  1  0.01300417  0.71469262  0.31103012  1.0
  Ni  Ni111  1  0.34633750  0.04802596  0.31103012  1.0
  Ni  Ni112  1  0.34633750  0.38135929  0.31103012  1.0
  Ni  Ni113  1  0.34633750  0.71469262  0.31103012  1.0
  Ni  Ni114  1  0.67967083  0.04802596  0.31103012  1.0
  Ni  Ni115  1  0.67967083  0.38135929  0.31103012  1.0
  Ni  Ni116  1  0.67967083  0.71469262  0.31103012  1.0
  Ni  Ni117  1  0.17967083  0.17302596  0.26936346  1.0
  Ni  Ni118  1  0.17967083  0.50635929  0.26936346  1.0
  Ni  Ni119  1  0.17967083  0.83969262  0.26936346  1.0
  Ni  Ni120  1  0.51300417  0.17302596  0.26936346  1.0
  Ni  Ni121  1  0.51300417  0.50635929  0.26936346  1.0
  Ni  Ni122  1  0.51300417  0.83969262  0.26936346  1.0
  Ni  Ni123  1  0.84633750  0.17302596  0.26936346  1.0
  Ni  Ni124  1  0.84633750  0.50635929  0.26936346  1.0
  Ni  Ni125  1  0.84633750  0.83969262  0.26936346  1.0
  Ni  Ni126  1  0.32032917  0.20197404  0.27230321  1.0
  Ni  Ni127  1  0.32032917  0.53530738  0.27230321  1.0
  Ni  Ni128  1  0.32032917  0.86864071  0.27230321  1.0
  Ni  Ni129  1  0.65366250  0.20197404  0.27230321  1.0
  Ni  Ni130  1  0.65366250  0.53530738  0.27230321  1.0
  Ni  Ni131  1  0.65366250  0.86864071  0.27230321  1.0
  Ni  Ni132  1  0.98699583  0.20197404  0.27230321  1.0
  Ni  Ni133  1  0.98699583  0.53530738  0.27230321  1.0
  Ni  Ni134  1  0.98699583  0.86864071  0.27230321  1.0
  Ni  Ni135  1  0.15366250  0.07697404  0.31396987  1.0
  Ni  Ni136  1  0.15366250  0.41030737  0.31396987  1.0
  Ni  Ni137  1  0.15366250  0.74364071  0.31396987  1.0
  Ni  Ni138  1  0.48699583  0.07697404  0.31396987  1.0
  Ni  Ni139  1  0.48699583  0.41030737  0.31396987  1.0
  Ni  Ni140  1  0.48699583  0.74364071  0.31396987  1.0
  Ni  Ni141  1  0.82032917  0.07697404  0.31396987  1.0
  Ni  Ni142  1  0.82032917  0.41030737  0.31396987  1.0
  Ni  Ni143  1  0.82032917  0.74364071  0.31396987  1.0
  Ni  Ni144  1  0.01300417  0.13135929  0.39436346  1.0
  Ni  Ni145  1  0.01300417  0.46469262  0.39436346  1.0
  Ni  Ni146  1  0.01300417  0.79802596  0.39436346  1.0
  Ni  Ni147  1  0.34633750  0.13135929  0.39436346  1.0
  Ni  Ni148  1  0.34633750  0.46469262  0.39436346  1.0
  Ni  Ni149  1  0.34633750  0.79802596  0.39436346  1.0
  Ni  Ni150  1  0.67967083  0.13135929  0.39436346  1.0
  Ni  Ni151  1  0.67967083  0.46469262  0.39436346  1.0
  Ni  Ni152  1  0.67967083  0.79802596  0.39436346  1.0
  Ni  Ni153  1  0.17967083  0.25635929  0.35269679  1.0
  Ni  Ni154  1  0.17967083  0.58969263  0.35269679  1.0
  Ni  Ni155  1  0.17967083  0.92302596  0.35269679  1.0
  Ni  Ni156  1  0.51300417  0.25635929  0.35269679  1.0
  Ni  Ni157  1  0.51300417  0.58969263  0.35269679  1.0
  Ni  Ni158  1  0.51300417  0.92302596  0.35269679  1.0
  Ni  Ni159  1  0.84633750  0.25635929  0.35269679  1.0
  Ni  Ni160  1  0.84633750  0.58969263  0.35269679  1.0
  Ni  Ni161  1  0.84633750  0.92302596  0.35269679  1.0
  Ni  Ni162  1  0.32032917  0.28530737  0.35563654  1.0
  Ni  Ni163  1  0.32032917  0.61864071  0.35563654  1.0
  Ni  Ni164  1  0.32032917  0.95197404  0.35563654  1.0
  Ni  Ni165  1  0.65366250  0.28530737  0.35563654  1.0
  Ni  Ni166  1  0.65366250  0.61864071  0.35563654  1.0
  Ni  Ni167  1  0.65366250  0.95197404  0.35563654  1.0
  Ni  Ni168  1  0.98699583  0.28530737  0.35563654  1.0
  Ni  Ni169  1  0.98699583  0.61864071  0.35563654  1.0
  Ni  Ni170  1  0.98699583  0.95197404  0.35563654  1.0
  Ni  Ni171  1  0.15366250  0.16030737  0.39730321  1.0
  Ni  Ni172  1  0.15366250  0.49364071  0.39730321  1.0
  Ni  Ni173  1  0.15366250  0.82697404  0.39730321  1.0
  Ni  Ni174  1  0.48699583  0.16030737  0.39730321  1.0
  Ni  Ni175  1  0.48699583  0.49364071  0.39730321  1.0
  Ni  Ni176  1  0.48699583  0.82697404  0.39730321  1.0
  Ni  Ni177  1  0.82032917  0.16030737  0.39730321  1.0
  Ni  Ni178  1  0.82032917  0.49364071  0.39730321  1.0
  Ni  Ni179  1  0.82032917  0.82697404  0.39730321  1.0
  Ti  Ti180  1  0.25577667  0.17104108  0.01015108  1.0
  Ti  Ti181  1  0.25577667  0.50437442  0.01015108  1.0
  Ti  Ti182  1  0.25577667  0.83770775  0.01015108  1.0
  Ti  Ti183  1  0.58911000  0.17104108  0.01015108  1.0
  Ti  Ti184  1  0.58911000  0.50437442  0.01015108  1.0
  Ti  Ti185  1  0.58911000  0.83770775  0.01015108  1.0
  Ti  Ti186  1  0.92244333  0.17104108  0.01015108  1.0
  Ti  Ti187  1  0.92244333  0.50437442  0.01015108  1.0
  Ti  Ti188  1  0.92244333  0.83770775  0.01015108  1.0
  Ti  Ti189  1  0.08911000  0.04604108  0.05181775  1.0
  Ti  Ti190  1  0.08911000  0.37937442  0.05181775  1.0
  Ti  Ti191  1  0.08911000  0.71270775  0.05181775  1.0
  Ti  Ti192  1  0.42244333  0.04604108  0.05181775  1.0
  Ti  Ti193  1  0.42244333  0.37937442  0.05181775  1.0
  Ti  Ti194  1  0.42244333  0.71270775  0.05181775  1.0
  Ti  Ti195  1  0.75577667  0.04604108  0.05181775  1.0
  Ti  Ti196  1  0.75577667  0.37937442  0.05181775  1.0
  Ti  Ti197  1  0.75577667  0.71270775  0.05181775  1.0
  Ti  Ti198  1  0.07755667  0.24562558  0.07318225  1.0
  Ti  Ti199  1  0.07755667  0.57895892  0.07318225  1.0
  Ti  Ti200  1  0.07755667  0.91229225  0.07318225  1.0
  Ti  Ti201  1  0.41089000  0.24562558  0.07318225  1.0
  Ti  Ti202  1  0.41089000  0.57895892  0.07318225  1.0
  Ti  Ti203  1  0.41089000  0.91229225  0.07318225  1.0
  Ti  Ti204  1  0.74422333  0.24562558  0.07318225  1.0
  Ti  Ti205  1  0.74422333  0.57895892  0.07318225  1.0
  Ti  Ti206  1  0.74422333  0.91229225  0.07318225  1.0
  Ti  Ti207  1  0.24422333  0.03729225  0.03151558  1.0
  Ti  Ti208  1  0.24422333  0.37062558  0.03151558  1.0
  Ti  Ti209  1  0.24422333  0.70395892  0.03151558  1.0
  Ti  Ti210  1  0.57755667  0.03729225  0.03151558  1.0
  Ti  Ti211  1  0.57755667  0.37062558  0.03151558  1.0
  Ti  Ti212  1  0.57755667  0.70395892  0.03151558  1.0
  Ti  Ti213  1  0.91089000  0.03729225  0.03151558  1.0
  Ti  Ti214  1  0.91089000  0.37062558  0.03151558  1.0
  Ti  Ti215  1  0.91089000  0.70395892  0.03151558  1.0
  Ti  Ti216  1  0.25577667  0.25437442  0.09348442  1.0
  Ti  Ti217  1  0.25577667  0.58770775  0.09348442  1.0
  Ti  Ti218  1  0.25577667  0.92104108  0.09348442  1.0
  Ti  Ti219  1  0.58911000  0.25437442  0.09348442  1.0
  Ti  Ti220  1  0.58911000  0.58770775  0.09348442  1.0
  Ti  Ti221  1  0.58911000  0.92104108  0.09348442  1.0
  Ti  Ti222  1  0.92244333  0.25437442  0.09348442  1.0
  Ti  Ti223  1  0.92244333  0.58770775  0.09348442  1.0
  Ti  Ti224  1  0.92244333  0.92104108  0.09348442  1.0
  Ti  Ti225  1  0.08911000  0.12937442  0.13515108  1.0
  Ti  Ti226  1  0.08911000  0.46270775  0.13515108  1.0
  Ti  Ti227  1  0.08911000  0.79604108  0.13515108  1.0
  Ti  Ti228  1  0.42244333  0.12937442  0.13515108  1.0
  Ti  Ti229  1  0.42244333  0.46270775  0.13515108  1.0
  Ti  Ti230  1  0.42244333  0.79604108  0.13515108  1.0
  Ti  Ti231  1  0.75577667  0.12937442  0.13515108  1.0
  Ti  Ti232  1  0.75577667  0.46270775  0.13515108  1.0
  Ti  Ti233  1  0.75577667  0.79604108  0.13515108  1.0
  Ti  Ti234  1  0.07755667  0.32895892  0.15651558  1.0
  Ti  Ti235  1  0.07755667  0.66229225  0.15651558  1.0
  Ti  Ti236  1  0.07755667  0.99562558  0.15651558  1.0
  Ti  Ti237  1  0.41089000  0.32895892  0.15651558  1.0
  Ti  Ti238  1  0.41089000  0.66229225  0.15651558  1.0
  Ti  Ti239  1  0.41089000  0.99562558  0.15651558  1.0
  Ti  Ti240  1  0.74422333  0.32895892  0.15651558  1.0
  Ti  Ti241  1  0.74422333  0.66229225  0.15651558  1.0
  Ti  Ti242  1  0.74422333  0.99562558  0.15651558  1.0
  Ti  Ti243  1  0.24422333  0.12062558  0.11484892  1.0
  Ti  Ti244  1  0.24422333  0.45395892  0.11484892  1.0
  Ti  Ti245  1  0.24422333  0.78729225  0.11484892  1.0
  Ti  Ti246  1  0.57755667  0.12062558  0.11484892  1.0
  Ti  Ti247  1  0.57755667  0.45395892  0.11484892  1.0
  Ti  Ti248  1  0.57755667  0.78729225  0.11484892  1.0
  Ti  Ti249  1  0.91089000  0.12062558  0.11484892  1.0
  Ti  Ti250  1  0.91089000  0.45395892  0.11484892  1.0
  Ti  Ti251  1  0.91089000  0.78729225  0.11484892  1.0
  Ti  Ti252  1  0.25577667  0.00437442  0.17681775  1.0
  Ti  Ti253  1  0.25577667  0.33770775  0.17681775  1.0
  Ti  Ti254  1  0.25577667  0.67104108  0.17681775  1.0
  Ti  Ti255  1  0.58911000  0.00437442  0.17681775  1.0
  Ti  Ti256  1  0.58911000  0.33770775  0.17681775  1.0
  Ti  Ti257  1  0.58911000  0.67104108  0.17681775  1.0
  Ti  Ti258  1  0.92244333  0.00437442  0.17681775  1.0
  Ti  Ti259  1  0.92244333  0.33770775  0.17681775  1.0
  Ti  Ti260  1  0.92244333  0.67104108  0.17681775  1.0
  Ti  Ti261  1  0.08911000  0.21270775  0.21848442  1.0
  Ti  Ti262  1  0.08911000  0.54604108  0.21848442  1.0
  Ti  Ti263  1  0.08911000  0.87937442  0.21848442  1.0
  Ti  Ti264  1  0.42244333  0.21270775  0.21848442  1.0
  Ti  Ti265  1  0.42244333  0.54604108  0.21848442  1.0
  Ti  Ti266  1  0.42244333  0.87937442  0.21848442  1.0
  Ti  Ti267  1  0.75577667  0.21270775  0.21848442  1.0
  Ti  Ti268  1  0.75577667  0.54604108  0.21848442  1.0
  Ti  Ti269  1  0.75577667  0.87937442  0.21848442  1.0
  Ti  Ti270  1  0.07755667  0.07895892  0.23984892  1.0
  Ti  Ti271  1  0.07755667  0.41229225  0.23984892  1.0
  Ti  Ti272  1  0.07755667  0.74562558  0.23984892  1.0
  Ti  Ti273  1  0.41089000  0.07895892  0.23984892  1.0
  Ti  Ti274  1  0.41089000  0.41229225  0.23984892  1.0
  Ti  Ti275  1  0.41089000  0.74562558  0.23984892  1.0
  Ti  Ti276  1  0.74422333  0.07895892  0.23984892  1.0
  Ti  Ti277  1  0.74422333  0.41229225  0.23984892  1.0
  Ti  Ti278  1  0.74422333  0.74562558  0.23984892  1.0
  Ti  Ti279  1  0.24422333  0.20395892  0.19818225  1.0
  Ti  Ti280  1  0.24422333  0.53729225  0.19818225  1.0
  Ti  Ti281  1  0.24422333  0.87062558  0.19818225  1.0
  Ti  Ti282  1  0.57755667  0.20395892  0.19818225  1.0
  Ti  Ti283  1  0.57755667  0.53729225  0.19818225  1.0
  Ti  Ti284  1  0.57755667  0.87062558  0.19818225  1.0
  Ti  Ti285  1  0.91089000  0.20395892  0.19818225  1.0
  Ti  Ti286  1  0.91089000  0.53729225  0.19818225  1.0
  Ti  Ti287  1  0.91089000  0.87062558  0.19818225  1.0
  Ti  Ti288  1  0.25577667  0.08770775  0.26015108  1.0
  Ti  Ti289  1  0.25577667  0.42104108  0.26015108  1.0
  Ti  Ti290  1  0.25577667  0.75437442  0.26015108  1.0
  Ti  Ti291  1  0.58911000  0.08770775  0.26015108  1.0
  Ti  Ti292  1  0.58911000  0.42104108  0.26015108  1.0
  Ti  Ti293  1  0.58911000  0.75437442  0.26015108  1.0
  Ti  Ti294  1  0.92244333  0.08770775  0.26015108  1.0
  Ti  Ti295  1  0.92244333  0.42104108  0.26015108  1.0
  Ti  Ti296  1  0.92244333  0.75437442  0.26015108  1.0
  Ti  Ti297  1  0.08911000  0.29604108  0.30181775  1.0
  Ti  Ti298  1  0.08911000  0.62937442  0.30181775  1.0
  Ti  Ti299  1  0.08911000  0.96270775  0.30181775  1.0
  Ti  Ti300  1  0.42244333  0.29604108  0.30181775  1.0
  Ti  Ti301  1  0.42244333  0.62937442  0.30181775  1.0
  Ti  Ti302  1  0.42244333  0.96270775  0.30181775  1.0
  Ti  Ti303  1  0.75577667  0.29604108  0.30181775  1.0
  Ti  Ti304  1  0.75577667  0.62937442  0.30181775  1.0
  Ti  Ti305  1  0.75577667  0.96270775  0.30181775  1.0
  Ti  Ti306  1  0.07755667  0.16229225  0.32318225  1.0
  Ti  Ti307  1  0.07755667  0.49562558  0.32318225  1.0
  Ti  Ti308  1  0.07755667  0.82895892  0.32318225  1.0
  Ti  Ti309  1  0.41089000  0.16229225  0.32318225  1.0
  Ti  Ti310  1  0.41089000  0.49562558  0.32318225  1.0
  Ti  Ti311  1  0.41089000  0.82895892  0.32318225  1.0
  Ti  Ti312  1  0.74422333  0.16229225  0.32318225  1.0
  Ti  Ti313  1  0.74422333  0.49562558  0.32318225  1.0
  Ti  Ti314  1  0.74422333  0.82895892  0.32318225  1.0
  Ti  Ti315  1  0.24422333  0.28729225  0.28151558  1.0
  Ti  Ti316  1  0.24422333  0.62062558  0.28151558  1.0
  Ti  Ti317  1  0.24422333  0.95395892  0.28151558  1.0
  Ti  Ti318  1  0.57755667  0.28729225  0.28151558  1.0
  Ti  Ti319  1  0.57755667  0.62062558  0.28151558  1.0
  Ti  Ti320  1  0.57755667  0.95395892  0.28151558  1.0
  Ti  Ti321  1  0.91089000  0.28729225  0.28151558  1.0
  Ti  Ti322  1  0.91089000  0.62062558  0.28151558  1.0
  Ti  Ti323  1  0.91089000  0.95395892  0.28151558  1.0
  Ti  Ti324  1  0.25577667  0.17104108  0.34348442  1.0
  Ti  Ti325  1  0.25577667  0.50437442  0.34348442  1.0
  Ti  Ti326  1  0.25577667  0.83770775  0.34348442  1.0
  Ti  Ti327  1  0.58911000  0.17104108  0.34348442  1.0
  Ti  Ti328  1  0.58911000  0.50437442  0.34348442  1.0
  Ti  Ti329  1  0.58911000  0.83770775  0.34348442  1.0
  Ti  Ti330  1  0.92244333  0.17104108  0.34348442  1.0
  Ti  Ti331  1  0.92244333  0.50437442  0.34348442  1.0
  Ti  Ti332  1  0.92244333  0.83770775  0.34348442  1.0
  Ti  Ti333  1  0.08911000  0.04604108  0.38515108  1.0
  Ti  Ti334  1  0.08911000  0.37937442  0.38515108  1.0
  Ti  Ti335  1  0.08911000  0.71270775  0.38515108  1.0
  Ti  Ti336  1  0.42244333  0.04604108  0.38515108  1.0
  Ti  Ti337  1  0.42244333  0.37937442  0.38515108  1.0
  Ti  Ti338  1  0.42244333  0.71270775  0.38515108  1.0
  Ti  Ti339  1  0.75577667  0.04604108  0.38515108  1.0
  Ti  Ti340  1  0.75577667  0.37937442  0.38515108  1.0
  Ti  Ti341  1  0.75577667  0.71270775  0.38515108  1.0
  Ti  Ti342  1  0.07755667  0.24562558  0.40651558  1.0
  Ti  Ti343  1  0.07755667  0.57895892  0.40651558  1.0
  Ti  Ti344  1  0.07755667  0.91229225  0.40651558  1.0
  Ti  Ti345  1  0.41089000  0.24562558  0.40651558  1.0
  Ti  Ti346  1  0.41089000  0.57895892  0.40651558  1.0
  Ti  Ti347  1  0.41089000  0.91229225  0.40651558  1.0
  Ti  Ti348  1  0.74422333  0.24562558  0.40651558  1.0
  Ti  Ti349  1  0.74422333  0.57895892  0.40651558  1.0
  Ti  Ti350  1  0.74422333  0.91229225  0.40651558  1.0
  Ti  Ti351  1  0.24422333  0.03729225  0.36484892  1.0
  Ti  Ti352  1  0.24422333  0.37062558  0.36484892  1.0
  Ti  Ti353  1  0.24422333  0.70395892  0.36484892  1.0
  Ti  Ti354  1  0.57755667  0.03729225  0.36484892  1.0
  Ti  Ti355  1  0.57755667  0.37062558  0.36484892  1.0
  Ti  Ti356  1  0.57755667  0.70395892  0.36484892  1.0
  Ti  Ti357  1  0.91089000  0.03729225  0.36484892  1.0
  Ti  Ti358  1  0.91089000  0.37062558  0.36484892  1.0
  Ti  Ti359  1  0.91089000  0.70395892  0.36484892  1.0
