# generated using pymatgen
data_TiNi
_symmetry_space_group_name_H-M   'P 1'
_cell_length_a   21.73962480
_cell_length_b   39.00472307
_cell_length_c   36.23270800
_cell_angle_alpha   123.87333575
_cell_angle_beta   120.00000000
_cell_angle_gamma   73.81859767
_symmetry_Int_Tables_number   1
_chemical_formula_structural   TiNi
_chemical_formula_sum   'Ti324 Ni324'
_cell_volume   22091.28276032
_cell_formula_units_Z   324
loop_
 _symmetry_equiv_pos_site_id
 _symmetry_equiv_pos_as_xyz
  1  'x, y, z'
loop_
 _atom_site_type_symbol
 _atom_site_label
 _atom_site_symmetry_multiplicity
 _atom_site_fract_x
 _atom_site_fract_y
 _atom_site_fract_z
 _atom_site_occupancy
  Ti  Ti0  1  0.11111111  0.00301550  0.12784308  1.0
  Ti  Ti1  1  0.11111111  0.33634883  0.12784308  1.0
  Ti  Ti2  1  0.11111111  0.66968217  0.12784308  1.0
  Ti  Ti3  1  0.44444444  0.00301550  0.12784308  1.0
  Ti  Ti4  1  0.44444444  0.33634883  0.12784308  1.0
  Ti  Ti5  1  0.44444444  0.66968217  0.12784308  1.0
  Ti  Ti6  1  0.77777778  0.00301550  0.12784308  1.0
  Ti  Ti7  1  0.77777778  0.33634883  0.12784308  1.0
  Ti  Ti8  1  0.77777778  0.66968217  0.12784308  1.0
  Ti  Ti9  1  0.11111111  0.16968217  0.02784308  1.0
  Ti  Ti10  1  0.11111111  0.50301550  0.02784308  1.0
  Ti  Ti11  1  0.11111111  0.83634883  0.02784308  1.0
  Ti  Ti12  1  0.44444444  0.16968217  0.02784308  1.0
  Ti  Ti13  1  0.44444444  0.50301550  0.02784308  1.0
  Ti  Ti14  1  0.44444444  0.83634883  0.02784308  1.0
  Ti  Ti15  1  0.77777778  0.16968217  0.02784308  1.0
  Ti  Ti16  1  0.77777778  0.50301550  0.02784308  1.0
  Ti  Ti17  1  0.77777778  0.83634883  0.02784308  1.0
  Ti  Ti18  1  0.00000000  0.15595700  0.08627465  1.0
  Ti  Ti19  1  0.00000000  0.48929033  0.08627465  1.0
  Ti  Ti20  1  0.00000000  0.82262367  0.08627465  1.0
  Ti  Ti21  1  0.33333333  0.15595700  0.08627465  1.0
  Ti  Ti22  1  0.33333333  0.48929033  0.08627465  1.0
  Ti  Ti23  1  0.33333333  0.82262367  0.08627465  1.0
  Ti  Ti24  1  0.66666667  0.15595700  0.08627465  1.0
  Ti  Ti25  1  0.66666667  0.48929033  0.08627465  1.0
  Ti  Ti26  1  0.66666667  0.82262367  0.08627465  1.0
  Ti  Ti27  1  0.00000000  0.32262367  0.18627465  1.0
  Ti  Ti28  1  0.00000000  0.65595700  0.18627465  1.0
  Ti  Ti29  1  0.00000000  0.98929033  0.18627465  1.0
  Ti  Ti30  1  0.33333333  0.32262367  0.18627465  1.0
  Ti  Ti31  1  0.33333333  0.65595700  0.18627465  1.0
  Ti  Ti32  1  0.33333333  0.98929033  0.18627465  1.0
  Ti  Ti33  1  0.66666667  0.32262367  0.18627465  1.0
  Ti  Ti34  1  0.66666667  0.65595700  0.18627465  1.0
  Ti  Ti35  1  0.66666667  0.98929033  0.18627465  1.0
  Ti  Ti36  1  0.22222222  0.00301550  0.06117642  1.0
  Ti  Ti37  1  0.22222222  0.33634883  0.06117642  1.0
  Ti  Ti38  1  0.22222222  0.66968217  0.06117642  1.0
  Ti  Ti39  1  0.55555556  0.00301550  0.06117642  1.0
  Ti  Ti40  1  0.55555556  0.33634883  0.06117642  1.0
  Ti  Ti41  1  0.55555556  0.66968217  0.06117642  1.0
  Ti  Ti42  1  0.88888889  0.00301550  0.06117642  1.0
  Ti  Ti43  1  0.88888889  0.33634883  0.06117642  1.0
  Ti  Ti44  1  0.88888889  0.66968217  0.06117642  1.0
  Ti  Ti45  1  0.22222222  0.16968217  0.16117642  1.0
  Ti  Ti46  1  0.22222222  0.50301550  0.16117642  1.0
  Ti  Ti47  1  0.22222222  0.83634883  0.16117642  1.0
  Ti  Ti48  1  0.55555556  0.16968217  0.16117642  1.0
  Ti  Ti49  1  0.55555556  0.50301550  0.16117642  1.0
  Ti  Ti50  1  0.55555556  0.83634883  0.16117642  1.0
  Ti  Ti51  1  0.88888889  0.16968217  0.16117642  1.0
  Ti  Ti52  1  0.88888889  0.50301550  0.16117642  1.0
  Ti  Ti53  1  0.88888889  0.83634883  0.16117642  1.0
  Ti  Ti54  1  0.22841050  0.10591350  0.05624855  1.0
  Ti  Ti55  1  0.22841050  0.43924683  0.05624855  1.0
  Ti  Ti56  1  0.22841050  0.77258017  0.05624855  1.0
  Ti  Ti57  1  0.56174383  0.10591350  0.05624855  1.0
  Ti  Ti58  1  0.56174383  0.43924683  0.05624855  1.0
  Ti  Ti59  1  0.56174383  0.77258017  0.05624855  1.0
  Ti  Ti60  1  0.89507717  0.10591350  0.05624855  1.0
  Ti  Ti61  1  0.89507717  0.43924683  0.05624855  1.0
  Ti  Ti62  1  0.89507717  0.77258017  0.05624855  1.0
  Ti  Ti63  1  0.22841050  0.27258017  0.15624855  1.0
  Ti  Ti64  1  0.22841050  0.60591350  0.15624855  1.0
  Ti  Ti65  1  0.22841050  0.93924683  0.15624855  1.0
  Ti  Ti66  1  0.56174383  0.27258017  0.15624855  1.0
  Ti  Ti67  1  0.56174383  0.60591350  0.15624855  1.0
  Ti  Ti68  1  0.56174383  0.93924683  0.15624855  1.0
  Ti  Ti69  1  0.89507717  0.27258017  0.15624855  1.0
  Ti  Ti70  1  0.89507717  0.60591350  0.15624855  1.0
  Ti  Ti71  1  0.89507717  0.93924683  0.15624855  1.0
  Ti  Ti72  1  0.10492283  0.10591350  0.11920225  1.0
  Ti  Ti73  1  0.10492283  0.43924683  0.11920225  1.0
  Ti  Ti74  1  0.10492283  0.77258017  0.11920225  1.0
  Ti  Ti75  1  0.43825617  0.10591350  0.11920225  1.0
  Ti  Ti76  1  0.43825617  0.43924683  0.11920225  1.0
  Ti  Ti77  1  0.43825617  0.77258017  0.11920225  1.0
  Ti  Ti78  1  0.77158950  0.10591350  0.11920225  1.0
  Ti  Ti79  1  0.77158950  0.43924683  0.11920225  1.0
  Ti  Ti80  1  0.77158950  0.77258017  0.11920225  1.0
  Ti  Ti81  1  0.10492283  0.27258017  0.01920225  1.0
  Ti  Ti82  1  0.10492283  0.60591350  0.01920225  1.0
  Ti  Ti83  1  0.10492283  0.93924683  0.01920225  1.0
  Ti  Ti84  1  0.43825617  0.27258017  0.01920225  1.0
  Ti  Ti85  1  0.43825617  0.60591350  0.01920225  1.0
  Ti  Ti86  1  0.43825617  0.93924683  0.01920225  1.0
  Ti  Ti87  1  0.77158950  0.27258017  0.01920225  1.0
  Ti  Ti88  1  0.77158950  0.60591350  0.01920225  1.0
  Ti  Ti89  1  0.77158950  0.93924683  0.01920225  1.0
  Ti  Ti90  1  0.00000000  0.10591350  0.19329485  1.0
  Ti  Ti91  1  0.00000000  0.43924683  0.19329485  1.0
  Ti  Ti92  1  0.00000000  0.77258017  0.19329485  1.0
  Ti  Ti93  1  0.33333333  0.10591350  0.19329485  1.0
  Ti  Ti94  1  0.33333333  0.43924683  0.19329485  1.0
  Ti  Ti95  1  0.33333333  0.77258017  0.19329485  1.0
  Ti  Ti96  1  0.66666667  0.10591350  0.19329485  1.0
  Ti  Ti97  1  0.66666667  0.43924683  0.19329485  1.0
  Ti  Ti98  1  0.66666667  0.77258017  0.19329485  1.0
  Ti  Ti99  1  0.00000000  0.27258017  0.09329485  1.0
  Ti  Ti100  1  0.00000000  0.60591350  0.09329485  1.0
  Ti  Ti101  1  0.00000000  0.93924683  0.09329485  1.0
  Ti  Ti102  1  0.33333333  0.27258017  0.09329485  1.0
  Ti  Ti103  1  0.33333333  0.60591350  0.09329485  1.0
  Ti  Ti104  1  0.33333333  0.93924683  0.09329485  1.0
  Ti  Ti105  1  0.66666667  0.27258017  0.09329485  1.0
  Ti  Ti106  1  0.66666667  0.60591350  0.09329485  1.0
  Ti  Ti107  1  0.66666667  0.93924683  0.09329485  1.0
  Ti  Ti108  1  0.00000000  0.05550750  0.09515185  1.0
  Ti  Ti109  1  0.00000000  0.38884083  0.09515185  1.0
  Ti  Ti110  1  0.00000000  0.72217417  0.09515185  1.0
  Ti  Ti111  1  0.33333333  0.05550750  0.09515185  1.0
  Ti  Ti112  1  0.33333333  0.38884083  0.09515185  1.0
  Ti  Ti113  1  0.33333333  0.72217417  0.09515185  1.0
  Ti  Ti114  1  0.66666667  0.05550750  0.09515185  1.0
  Ti  Ti115  1  0.66666667  0.38884083  0.09515185  1.0
  Ti  Ti116  1  0.66666667  0.72217417  0.09515185  1.0
  Ti  Ti117  1  0.00000000  0.22217417  0.19515185  1.0
  Ti  Ti118  1  0.00000000  0.55550750  0.19515185  1.0
  Ti  Ti119  1  0.00000000  0.88884083  0.19515185  1.0
  Ti  Ti120  1  0.33333333  0.22217417  0.19515185  1.0
  Ti  Ti121  1  0.33333333  0.55550750  0.19515185  1.0
  Ti  Ti122  1  0.33333333  0.88884083  0.19515185  1.0
  Ti  Ti123  1  0.66666667  0.22217417  0.19515185  1.0
  Ti  Ti124  1  0.66666667  0.55550750  0.19515185  1.0
  Ti  Ti125  1  0.66666667  0.88884083  0.19515185  1.0
  Ti  Ti126  1  0.11524483  0.05550750  0.02600495  1.0
  Ti  Ti127  1  0.11524483  0.38884083  0.02600495  1.0
  Ti  Ti128  1  0.11524483  0.72217417  0.02600495  1.0
  Ti  Ti129  1  0.44857817  0.05550750  0.02600495  1.0
  Ti  Ti130  1  0.44857817  0.38884083  0.02600495  1.0
  Ti  Ti131  1  0.44857817  0.72217417  0.02600495  1.0
  Ti  Ti132  1  0.78191150  0.05550750  0.02600495  1.0
  Ti  Ti133  1  0.78191150  0.38884083  0.02600495  1.0
  Ti  Ti134  1  0.78191150  0.72217417  0.02600495  1.0
  Ti  Ti135  1  0.11524483  0.22217417  0.12600495  1.0
  Ti  Ti136  1  0.11524483  0.55550750  0.12600495  1.0
  Ti  Ti137  1  0.11524483  0.88884083  0.12600495  1.0
  Ti  Ti138  1  0.44857817  0.22217417  0.12600495  1.0
  Ti  Ti139  1  0.44857817  0.55550750  0.12600495  1.0
  Ti  Ti140  1  0.44857817  0.88884083  0.12600495  1.0
  Ti  Ti141  1  0.78191150  0.22217417  0.12600495  1.0
  Ti  Ti142  1  0.78191150  0.55550750  0.12600495  1.0
  Ti  Ti143  1  0.78191150  0.88884083  0.12600495  1.0
  Ti  Ti144  1  0.21808850  0.05550750  0.15685805  1.0
  Ti  Ti145  1  0.21808850  0.38884083  0.15685805  1.0
  Ti  Ti146  1  0.21808850  0.72217417  0.15685805  1.0
  Ti  Ti147  1  0.55142183  0.05550750  0.15685805  1.0
  Ti  Ti148  1  0.55142183  0.38884083  0.15685805  1.0
  Ti  Ti149  1  0.55142183  0.72217417  0.15685805  1.0
  Ti  Ti150  1  0.88475517  0.05550750  0.15685805  1.0
  Ti  Ti151  1  0.88475517  0.38884083  0.15685805  1.0
  Ti  Ti152  1  0.88475517  0.72217417  0.15685805  1.0
  Ti  Ti153  1  0.21808850  0.22217417  0.05685805  1.0
  Ti  Ti154  1  0.21808850  0.55550750  0.05685805  1.0
  Ti  Ti155  1  0.21808850  0.88884083  0.05685805  1.0
  Ti  Ti156  1  0.55142183  0.22217417  0.05685805  1.0
  Ti  Ti157  1  0.55142183  0.55550750  0.05685805  1.0
  Ti  Ti158  1  0.55142183  0.88884083  0.05685805  1.0
  Ti  Ti159  1  0.88475517  0.22217417  0.05685805  1.0
  Ti  Ti160  1  0.88475517  0.55550750  0.05685805  1.0
  Ti  Ti161  1  0.88475517  0.88884083  0.05685805  1.0
  Ni  Ni162  1  0.11111111  0.09300167  0.18183478  1.0
  Ni  Ni163  1  0.11111111  0.42633500  0.18183478  1.0
  Ni  Ni164  1  0.11111111  0.75966833  0.18183478  1.0
  Ni  Ni165  1  0.44444444  0.09300167  0.18183478  1.0
  Ni  Ni166  1  0.44444444  0.42633500  0.18183478  1.0
  Ni  Ni167  1  0.44444444  0.75966833  0.18183478  1.0
  Ni  Ni168  1  0.77777778  0.09300167  0.18183478  1.0
  Ni  Ni169  1  0.77777778  0.42633500  0.18183478  1.0
  Ni  Ni170  1  0.77777778  0.75966833  0.18183478  1.0
  Ni  Ni171  1  0.11111111  0.25966833  0.08183478  1.0
  Ni  Ni172  1  0.11111111  0.59300167  0.08183478  1.0
  Ni  Ni173  1  0.11111111  0.92633500  0.08183478  1.0
  Ni  Ni174  1  0.44444444  0.25966833  0.08183478  1.0
  Ni  Ni175  1  0.44444444  0.59300167  0.08183478  1.0
  Ni  Ni176  1  0.44444444  0.92633500  0.08183478  1.0
  Ni  Ni177  1  0.77777778  0.25966833  0.08183478  1.0
  Ni  Ni178  1  0.77777778  0.59300167  0.08183478  1.0
  Ni  Ni179  1  0.77777778  0.92633500  0.08183478  1.0
  Ni  Ni180  1  0.00000000  0.06407367  0.03114465  1.0
  Ni  Ni181  1  0.00000000  0.39740700  0.03114465  1.0
  Ni  Ni182  1  0.00000000  0.73074033  0.03114465  1.0
  Ni  Ni183  1  0.33333333  0.06407367  0.03114465  1.0
  Ni  Ni184  1  0.33333333  0.39740700  0.03114465  1.0
  Ni  Ni185  1  0.33333333  0.73074033  0.03114465  1.0
  Ni  Ni186  1  0.66666667  0.06407367  0.03114465  1.0
  Ni  Ni187  1  0.66666667  0.39740700  0.03114465  1.0
  Ni  Ni188  1  0.66666667  0.73074033  0.03114465  1.0
  Ni  Ni189  1  0.00000000  0.23074033  0.13114465  1.0
  Ni  Ni190  1  0.00000000  0.56407367  0.13114465  1.0
  Ni  Ni191  1  0.00000000  0.89740700  0.13114465  1.0
  Ni  Ni192  1  0.33333333  0.23074033  0.13114465  1.0
  Ni  Ni193  1  0.33333333  0.56407367  0.13114465  1.0
  Ni  Ni194  1  0.33333333  0.89740700  0.13114465  1.0
  Ni  Ni195  1  0.66666667  0.23074033  0.13114465  1.0
  Ni  Ni196  1  0.66666667  0.56407367  0.13114465  1.0
  Ni  Ni197  1  0.66666667  0.89740700  0.13114465  1.0
  Ni  Ni198  1  0.22222222  0.09300167  0.11516812  1.0
  Ni  Ni199  1  0.22222222  0.42633500  0.11516812  1.0
  Ni  Ni200  1  0.22222222  0.75966833  0.11516812  1.0
  Ni  Ni201  1  0.55555556  0.09300167  0.11516812  1.0
  Ni  Ni202  1  0.55555556  0.42633500  0.11516812  1.0
  Ni  Ni203  1  0.55555556  0.75966833  0.11516812  1.0
  Ni  Ni204  1  0.88888889  0.09300167  0.11516812  1.0
  Ni  Ni205  1  0.88888889  0.42633500  0.11516812  1.0
  Ni  Ni206  1  0.88888889  0.75966833  0.11516812  1.0
  Ni  Ni207  1  0.22222222  0.25966833  0.01516812  1.0
  Ni  Ni208  1  0.22222222  0.59300167  0.01516812  1.0
  Ni  Ni209  1  0.22222222  0.92633500  0.01516812  1.0
  Ni  Ni210  1  0.55555556  0.25966833  0.01516812  1.0
  Ni  Ni211  1  0.55555556  0.59300167  0.01516812  1.0
  Ni  Ni212  1  0.55555556  0.92633500  0.01516812  1.0
  Ni  Ni213  1  0.88888889  0.25966833  0.01516812  1.0
  Ni  Ni214  1  0.88888889  0.59300167  0.01516812  1.0
  Ni  Ni215  1  0.88888889  0.92633500  0.01516812  1.0
  Ni  Ni216  1  0.22927017  0.01986067  0.00461685  1.0
  Ni  Ni217  1  0.22927017  0.35319400  0.00461685  1.0
  Ni  Ni218  1  0.22927017  0.68652733  0.00461685  1.0
  Ni  Ni219  1  0.56260350  0.01986067  0.00461685  1.0
  Ni  Ni220  1  0.56260350  0.35319400  0.00461685  1.0
  Ni  Ni221  1  0.56260350  0.68652733  0.00461685  1.0
  Ni  Ni222  1  0.89593683  0.01986067  0.00461685  1.0
  Ni  Ni223  1  0.89593683  0.35319400  0.00461685  1.0
  Ni  Ni224  1  0.89593683  0.68652733  0.00461685  1.0
  Ni  Ni225  1  0.22927017  0.18652733  0.10461685  1.0
  Ni  Ni226  1  0.22927017  0.51986067  0.10461685  1.0
  Ni  Ni227  1  0.22927017  0.85319400  0.10461685  1.0
  Ni  Ni228  1  0.56260350  0.18652733  0.10461685  1.0
  Ni  Ni229  1  0.56260350  0.51986067  0.10461685  1.0
  Ni  Ni230  1  0.56260350  0.85319400  0.10461685  1.0
  Ni  Ni231  1  0.89593683  0.18652733  0.10461685  1.0
  Ni  Ni232  1  0.89593683  0.51986067  0.10461685  1.0
  Ni  Ni233  1  0.89593683  0.85319400  0.10461685  1.0
  Ni  Ni234  1  0.10406317  0.01986067  0.06705475  1.0
  Ni  Ni235  1  0.10406317  0.35319400  0.06705475  1.0
  Ni  Ni236  1  0.10406317  0.68652733  0.06705475  1.0
  Ni  Ni237  1  0.43739650  0.01986067  0.06705475  1.0
  Ni  Ni238  1  0.43739650  0.35319400  0.06705475  1.0
  Ni  Ni239  1  0.43739650  0.68652733  0.06705475  1.0
  Ni  Ni240  1  0.77072983  0.01986067  0.06705475  1.0
  Ni  Ni241  1  0.77072983  0.35319400  0.06705475  1.0
  Ni  Ni242  1  0.77072983  0.68652733  0.06705475  1.0
  Ni  Ni243  1  0.10406317  0.18652733  0.16705475  1.0
  Ni  Ni244  1  0.10406317  0.51986067  0.16705475  1.0
  Ni  Ni245  1  0.10406317  0.85319400  0.16705475  1.0
  Ni  Ni246  1  0.43739650  0.18652733  0.16705475  1.0
  Ni  Ni247  1  0.43739650  0.51986067  0.16705475  1.0
  Ni  Ni248  1  0.43739650  0.85319400  0.16705475  1.0
  Ni  Ni249  1  0.77072983  0.18652733  0.16705475  1.0
  Ni  Ni250  1  0.77072983  0.51986067  0.16705475  1.0
  Ni  Ni251  1  0.77072983  0.85319400  0.16705475  1.0
  Ni  Ni252  1  0.00000000  0.01986067  0.14217895  1.0
  Ni  Ni253  1  0.00000000  0.35319400  0.14217895  1.0
  Ni  Ni254  1  0.00000000  0.68652733  0.14217895  1.0
  Ni  Ni255  1  0.33333333  0.01986067  0.14217895  1.0
  Ni  Ni256  1  0.33333333  0.35319400  0.14217895  1.0
  Ni  Ni257  1  0.33333333  0.68652733  0.14217895  1.0
  Ni  Ni258  1  0.66666667  0.01986067  0.14217895  1.0
  Ni  Ni259  1  0.66666667  0.35319400  0.14217895  1.0
  Ni  Ni260  1  0.66666667  0.68652733  0.14217895  1.0
  Ni  Ni261  1  0.00000000  0.18652733  0.04217895  1.0
  Ni  Ni262  1  0.00000000  0.51986067  0.04217895  1.0
  Ni  Ni263  1  0.00000000  0.85319400  0.04217895  1.0
  Ni  Ni264  1  0.33333333  0.18652733  0.04217895  1.0
  Ni  Ni265  1  0.33333333  0.51986067  0.04217895  1.0
  Ni  Ni266  1  0.33333333  0.85319400  0.04217895  1.0
  Ni  Ni267  1  0.66666667  0.18652733  0.04217895  1.0
  Ni  Ni268  1  0.66666667  0.51986067  0.04217895  1.0
  Ni  Ni269  1  0.66666667  0.85319400  0.04217895  1.0
  Ni  Ni270  1  0.00000000  0.14010633  0.14868035  1.0
  Ni  Ni271  1  0.00000000  0.47343967  0.14868035  1.0
  Ni  Ni272  1  0.00000000  0.80677300  0.14868035  1.0
  Ni  Ni273  1  0.33333333  0.14010633  0.14868035  1.0
  Ni  Ni274  1  0.33333333  0.47343967  0.14868035  1.0
  Ni  Ni275  1  0.33333333  0.80677300  0.14868035  1.0
  Ni  Ni276  1  0.66666667  0.14010633  0.14868035  1.0
  Ni  Ni277  1  0.66666667  0.47343967  0.14868035  1.0
  Ni  Ni278  1  0.66666667  0.80677300  0.14868035  1.0
  Ni  Ni279  1  0.00000000  0.30677300  0.04868035  1.0
  Ni  Ni280  1  0.00000000  0.64010633  0.04868035  1.0
  Ni  Ni281  1  0.00000000  0.97343967  0.04868035  1.0
  Ni  Ni282  1  0.33333333  0.30677300  0.04868035  1.0
  Ni  Ni283  1  0.33333333  0.64010633  0.04868035  1.0
  Ni  Ni284  1  0.33333333  0.97343967  0.04868035  1.0
  Ni  Ni285  1  0.66666667  0.30677300  0.04868035  1.0
  Ni  Ni286  1  0.66666667  0.64010633  0.04868035  1.0
  Ni  Ni287  1  0.66666667  0.97343967  0.04868035  1.0
  Ni  Ni288  1  0.11986017  0.14010633  0.07676425  1.0
  Ni  Ni289  1  0.11986017  0.47343967  0.07676425  1.0
  Ni  Ni290  1  0.11986017  0.80677300  0.07676425  1.0
  Ni  Ni291  1  0.45319350  0.14010633  0.07676425  1.0
  Ni  Ni292  1  0.45319350  0.47343967  0.07676425  1.0
  Ni  Ni293  1  0.45319350  0.80677300  0.07676425  1.0
  Ni  Ni294  1  0.78652683  0.14010633  0.07676425  1.0
  Ni  Ni295  1  0.78652683  0.47343967  0.07676425  1.0
  Ni  Ni296  1  0.78652683  0.80677300  0.07676425  1.0
  Ni  Ni297  1  0.11986017  0.30677300  0.17676425  1.0
  Ni  Ni298  1  0.11986017  0.64010633  0.17676425  1.0
  Ni  Ni299  1  0.11986017  0.97343967  0.17676425  1.0
  Ni  Ni300  1  0.45319350  0.30677300  0.17676425  1.0
  Ni  Ni301  1  0.45319350  0.64010633  0.17676425  1.0
  Ni  Ni302  1  0.45319350  0.97343967  0.17676425  1.0
  Ni  Ni303  1  0.78652683  0.30677300  0.17676425  1.0
  Ni  Ni304  1  0.78652683  0.64010633  0.17676425  1.0
  Ni  Ni305  1  0.78652683  0.97343967  0.17676425  1.0
  Ni  Ni306  1  0.21347317  0.14010633  0.00484815  1.0
  Ni  Ni307  1  0.21347317  0.47343967  0.00484815  1.0
  Ni  Ni308  1  0.21347317  0.80677300  0.00484815  1.0
  Ni  Ni309  1  0.54680650  0.14010633  0.00484815  1.0
  Ni  Ni310  1  0.54680650  0.47343967  0.00484815  1.0
  Ni  Ni311  1  0.54680650  0.80677300  0.00484815  1.0
  Ni  Ni312  1  0.88013983  0.14010633  0.00484815  1.0
  Ni  Ni313  1  0.88013983  0.47343967  0.00484815  1.0
  Ni  Ni314  1  0.88013983  0.80677300  0.00484815  1.0
  Ni  Ni315  1  0.21347317  0.30677300  0.10484815  1.0
  Ni  Ni316  1  0.21347317  0.64010633  0.10484815  1.0
  Ni  Ni317  1  0.21347317  0.97343967  0.10484815  1.0
  Ni  Ni318  1  0.54680650  0.30677300  0.10484815  1.0
  Ni  Ni319  1  0.54680650  0.64010633  0.10484815  1.0
  Ni  Ni320  1  0.54680650  0.97343967  0.10484815  1.0
  Ni  Ni321  1  0.88013983  0.30677300  0.10484815  1.0
  Ni  Ni322  1  0.88013983  0.64010633  0.10484815  1.0
  Ni  Ni323  1  0.88013983  0.97343967  0.10484815  1.0
  Ti  Ti324  1  0.11111111  0.00301550  0.32784308  1.0
  Ti  Ti325  1  0.11111111  0.33634883  0.32784308  1.0
  Ti  Ti326  1  0.11111111  0.66968217  0.32784308  1.0
  Ti  Ti327  1  0.44444444  0.00301550  0.32784308  1.0
  Ti  Ti328  1  0.44444444  0.33634883  0.32784308  1.0
  Ti  Ti329  1  0.44444444  0.66968217  0.32784308  1.0
  Ti  Ti330  1  0.77777778  0.00301550  0.32784308  1.0
  Ti  Ti331  1  0.77777778  0.33634883  0.32784308  1.0
  Ti  Ti332  1  0.77777778  0.66968217  0.32784308  1.0
  Ti  Ti333  1  0.11111111  0.16968217  0.22784308  1.0
  Ti  Ti334  1  0.11111111  0.50301550  0.22784308  1.0
  Ti  Ti335  1  0.11111111  0.83634883  0.22784308  1.0
  Ti  Ti336  1  0.44444444  0.16968217  0.22784308  1.0
  Ti  Ti337  1  0.44444444  0.50301550  0.22784308  1.0
  Ti  Ti338  1  0.44444444  0.83634883  0.22784308  1.0
  Ti  Ti339  1  0.77777778  0.16968217  0.22784308  1.0
  Ti  Ti340  1  0.77777778  0.50301550  0.22784308  1.0
  Ti  Ti341  1  0.77777778  0.83634883  0.22784308  1.0
  Ti  Ti342  1  0.00000000  0.15595700  0.28627465  1.0
  Ti  Ti343  1  0.00000000  0.48929033  0.28627465  1.0
  Ti  Ti344  1  0.00000000  0.82262367  0.28627465  1.0
  Ti  Ti345  1  0.33333333  0.15595700  0.28627465  1.0
  Ti  Ti346  1  0.33333333  0.48929033  0.28627465  1.0
  Ti  Ti347  1  0.33333333  0.82262367  0.28627465  1.0
  Ti  Ti348  1  0.66666667  0.15595700  0.28627465  1.0
  Ti  Ti349  1  0.66666667  0.48929033  0.28627465  1.0
  Ti  Ti350  1  0.66666667  0.82262367  0.28627465  1.0
  Ti  Ti351  1  0.00000000  0.32262367  0.38627465  1.0
  Ti  Ti352  1  0.00000000  0.65595700  0.38627465  1.0
  Ti  Ti353  1  0.00000000  0.98929033  0.38627465  1.0
  Ti  Ti354  1  0.33333333  0.32262367  0.38627465  1.0
  Ti  Ti355  1  0.33333333  0.65595700  0.38627465  1.0
  Ti  Ti356  1  0.33333333  0.98929033  0.38627465  1.0
  Ti  Ti357  1  0.66666667  0.32262367  0.38627465  1.0
  Ti  Ti358  1  0.66666667  0.65595700  0.38627465  1.0
  Ti  Ti359  1  0.66666667  0.98929033  0.38627465  1.0
  Ti  Ti360  1  0.22222222  0.00301550  0.26117642  1.0
  Ti  Ti361  1  0.22222222  0.33634883  0.26117642  1.0
  Ti  Ti362  1  0.22222222  0.66968217  0.26117642  1.0
  Ti  Ti363  1  0.55555556  0.00301550  0.26117642  1.0
  Ti  Ti364  1  0.55555556  0.33634883  0.26117642  1.0
  Ti  Ti365  1  0.55555556  0.66968217  0.26117642  1.0
  Ti  Ti366  1  0.88888889  0.00301550  0.26117642  1.0
  Ti  Ti367  1  0.88888889  0.33634883  0.26117642  1.0
  Ti  Ti368  1  0.88888889  0.66968217  0.26117642  1.0
  Ti  Ti369  1  0.22222222  0.16968217  0.36117642  1.0
  Ti  Ti370  1  0.22222222  0.50301550  0.36117642  1.0
  Ti  Ti371  1  0.22222222  0.83634883  0.36117642  1.0
  Ti  Ti372  1  0.55555556  0.16968217  0.36117642  1.0
  Ti  Ti373  1  0.55555556  0.50301550  0.36117642  1.0
  Ti  Ti374  1  0.55555556  0.83634883  0.36117642  1.0
  Ti  Ti375  1  0.88888889  0.16968217  0.36117642  1.0
  Ti  Ti376  1  0.88888889  0.50301550  0.36117642  1.0
  Ti  Ti377  1  0.88888889  0.83634883  0.36117642  1.0
  Ti  Ti378  1  0.22841050  0.10591350  0.25624855  1.0
  Ti  Ti379  1  0.22841050  0.43924683  0.25624855  1.0
  Ti  Ti380  1  0.22841050  0.77258017  0.25624855  1.0
  Ti  Ti381  1  0.56174383  0.10591350  0.25624855  1.0
  Ti  Ti382  1  0.56174383  0.43924683  0.25624855  1.0
  Ti  Ti383  1  0.56174383  0.77258017  0.25624855  1.0
  Ti  Ti384  1  0.89507717  0.10591350  0.25624855  1.0
  Ti  Ti385  1  0.89507717  0.43924683  0.25624855  1.0
  Ti  Ti386  1  0.89507717  0.77258017  0.25624855  1.0
  Ti  Ti387  1  0.22841050  0.27258017  0.35624855  1.0
  Ti  Ti388  1  0.22841050  0.60591350  0.35624855  1.0
  Ti  Ti389  1  0.22841050  0.93924683  0.35624855  1.0
  Ti  Ti390  1  0.56174383  0.27258017  0.35624855  1.0
  Ti  Ti391  1  0.56174383  0.60591350  0.35624855  1.0
  Ti  Ti392  1  0.56174383  0.93924683  0.35624855  1.0
  Ti  Ti393  1  0.89507717  0.27258017  0.35624855  1.0
  Ti  Ti394  1  0.89507717  0.60591350  0.35624855  1.0
  Ti  Ti395  1  0.89507717  0.93924683  0.35624855  1.0
  Ti  Ti396  1  0.10492283  0.10591350  0.31920225  1.0
  Ti  Ti397  1  0.10492283  0.43924683  0.31920225  1.0
  Ti  Ti398  1  0.10492283  0.77258017  0.31920225  1.0
  Ti  Ti399  1  0.43825617  0.10591350  0.31920225  1.0
  Ti  Ti400  1  0.43825617  0.43924683  0.31920225  1.0
  Ti  Ti401  1  0.43825617  0.77258017  0.31920225  1.0
  Ti  Ti402  1  0.77158950  0.10591350  0.31920225  1.0
  Ti  Ti403  1  0.77158950  0.43924683  0.31920225  1.0
  Ti  Ti404  1  0.77158950  0.77258017  0.31920225  1.0
  Ti  Ti405  1  0.10492283  0.27258017  0.21920225  1.0
  Ti  Ti406  1  0.10492283  0.60591350  0.21920225  1.0
  Ti  Ti407  1  0.10492283  0.93924683  0.21920225  1.0
  Ti  Ti408  1  0.43825617  0.27258017  0.21920225  1.0
  Ti  Ti409  1  0.43825617  0.60591350  0.21920225  1.0
  Ti  Ti410  1  0.43825617  0.93924683  0.21920225  1.0
  Ti  Ti411  1  0.77158950  0.27258017  0.21920225  1.0
  Ti  Ti412  1  0.77158950  0.60591350  0.21920225  1.0
  Ti  Ti413  1  0.77158950  0.93924683  0.21920225  1.0
  Ti  Ti414  1  0.00000000  0.10591350  0.39329485  1.0
  Ti  Ti415  1  0.00000000  0.43924683  0.39329485  1.0
  Ti  Ti416  1  0.00000000  0.77258017  0.39329485  1.0
  Ti  Ti417  1  0.33333333  0.10591350  0.39329485  1.0
  Ti  Ti418  1  0.33333333  0.43924683  0.39329485  1.0
  Ti  Ti419  1  0.33333333  0.77258017  0.39329485  1.0
  Ti  Ti420  1  0.66666667  0.10591350  0.39329485  1.0
  Ti  Ti421  1  0.66666667  0.43924683  0.39329485  1.0
  Ti  Ti422  1  0.66666667  0.77258017  0.39329485  1.0
  Ti  Ti423  1  0.00000000  0.27258017  0.29329485  1.0
  Ti  Ti424  1  0.00000000  0.60591350  0.29329485  1.0
  Ti  Ti425  1  0.00000000  0.93924683  0.29329485  1.0
  Ti  Ti426  1  0.33333333  0.27258017  0.29329485  1.0
  Ti  Ti427  1  0.33333333  0.60591350  0.29329485  1.0
  Ti  Ti428  1  0.33333333  0.93924683  0.29329485  1.0
  Ti  Ti429  1  0.66666667  0.27258017  0.29329485  1.0
  Ti  Ti430  1  0.66666667  0.60591350  0.29329485  1.0
  Ti  Ti431  1  0.66666667  0.93924683  0.29329485  1.0
  Ti  Ti432  1  0.00000000  0.05550750  0.29515185  1.0
  Ti  Ti433  1  0.00000000  0.38884083  0.29515185  1.0
  Ti  Ti434  1  0.00000000  0.72217417  0.29515185  1.0
  Ti  Ti435  1  0.33333333  0.05550750  0.29515185  1.0
  Ti  Ti436  1  0.33333333  0.38884083  0.29515185  1.0
  Ti  Ti437  1  0.33333333  0.72217417  0.29515185  1.0
  Ti  Ti438  1  0.66666667  0.05550750  0.29515185  1.0
  Ti  Ti439  1  0.66666667  0.38884083  0.29515185  1.0
  Ti  Ti440  1  0.66666667  0.72217417  0.29515185  1.0
  Ti  Ti441  1  0.00000000  0.22217417  0.39515185  1.0
  Ti  Ti442  1  0.00000000  0.55550750  0.39515185  1.0
  Ti  Ti443  1  0.00000000  0.88884083  0.39515185  1.0
  Ti  Ti444  1  0.33333333  0.22217417  0.39515185  1.0
  Ti  Ti445  1  0.33333333  0.55550750  0.39515185  1.0
  Ti  Ti446  1  0.33333333  0.88884083  0.39515185  1.0
  Ti  Ti447  1  0.66666667  0.22217417  0.39515185  1.0
  Ti  Ti448  1  0.66666667  0.55550750  0.39515185  1.0
  Ti  Ti449  1  0.66666667  0.88884083  0.39515185  1.0
  Ti  Ti450  1  0.11524483  0.05550750  0.22600495  1.0
  Ti  Ti451  1  0.11524483  0.38884083  0.22600495  1.0
  Ti  Ti452  1  0.11524483  0.72217417  0.22600495  1.0
  Ti  Ti453  1  0.44857817  0.05550750  0.22600495  1.0
  Ti  Ti454  1  0.44857817  0.38884083  0.22600495  1.0
  Ti  Ti455  1  0.44857817  0.72217417  0.22600495  1.0
  Ti  Ti456  1  0.78191150  0.05550750  0.22600495  1.0
  Ti  Ti457  1  0.78191150  0.38884083  0.22600495  1.0
  Ti  Ti458  1  0.78191150  0.72217417  0.22600495  1.0
  Ti  Ti459  1  0.11524483  0.22217417  0.32600495  1.0
  Ti  Ti460  1  0.11524483  0.55550750  0.32600495  1.0
  Ti  Ti461  1  0.11524483  0.88884083  0.32600495  1.0
  Ti  Ti462  1  0.44857817  0.22217417  0.32600495  1.0
  Ti  Ti463  1  0.44857817  0.55550750  0.32600495  1.0
  Ti  Ti464  1  0.44857817  0.88884083  0.32600495  1.0
  Ti  Ti465  1  0.78191150  0.22217417  0.32600495  1.0
  Ti  Ti466  1  0.78191150  0.55550750  0.32600495  1.0
  Ti  Ti467  1  0.78191150  0.88884083  0.32600495  1.0
  Ti  Ti468  1  0.21808850  0.05550750  0.35685805  1.0
  Ti  Ti469  1  0.21808850  0.38884083  0.35685805  1.0
  Ti  Ti470  1  0.21808850  0.72217417  0.35685805  1.0
  Ti  Ti471  1  0.55142183  0.05550750  0.35685805  1.0
  Ti  Ti472  1  0.55142183  0.38884083  0.35685805  1.0
  Ti  Ti473  1  0.55142183  0.72217417  0.35685805  1.0
  Ti  Ti474  1  0.88475517  0.05550750  0.35685805  1.0
  Ti  Ti475  1  0.88475517  0.38884083  0.35685805  1.0
  Ti  Ti476  1  0.88475517  0.72217417  0.35685805  1.0
  Ti  Ti477  1  0.21808850  0.22217417  0.25685805  1.0
  Ti  Ti478  1  0.21808850  0.55550750  0.25685805  1.0
  Ti  Ti479  1  0.21808850  0.88884083  0.25685805  1.0
  Ti  Ti480  1  0.55142183  0.22217417  0.25685805  1.0
  Ti  Ti481  1  0.55142183  0.55550750  0.25685805  1.0
  Ti  Ti482  1  0.55142183  0.88884083  0.25685805  1.0
  Ti  Ti483  1  0.88475517  0.22217417  0.25685805  1.0
  Ti  Ti484  1  0.88475517  0.55550750  0.25685805  1.0
  Ti  Ti485  1  0.88475517  0.88884083  0.25685805  1.0
  Ni  Ni486  1  0.11111111  0.09300167  0.38183478  1.0
  Ni  Ni487  1  0.11111111  0.42633500  0.38183478  1.0
  Ni  Ni488  1  0.11111111  0.75966833  0.38183478  1.0
  Ni  Ni489  1  0.44444444  0.09300167  0.38183478  1.0
  Ni  Ni490  1  0.44444444  0.42633500  0.38183478  1.0
  Ni  Ni491  1  0.44444444  0.75966833  0.38183478  1.0
  Ni  Ni492  1  0.77777778  0.09300167  0.38183478  1.0
  Ni  Ni493  1  0.77777778  0.42633500  0.38183478  1.0
  Ni  Ni494  1  0.77777778  0.75966833  0.38183478  1.0
  Ni  Ni495  1  0.11111111  0.25966833  0.28183478  1.0
  Ni  Ni496  1  0.11111111  0.59300167  0.28183478  1.0
  Ni  Ni497  1  0.11111111  0.92633500  0.28183478  1.0
  Ni  Ni498  1  0.44444444  0.25966833  0.28183478  1.0
  Ni  Ni499  1  0.44444444  0.59300167  0.28183478  1.0
  Ni  Ni500  1  0.44444444  0.92633500  0.28183478  1.0
  Ni  Ni501  1  0.77777778  0.25966833  0.28183478  1.0
  Ni  Ni502  1  0.77777778  0.59300167  0.28183478  1.0
  Ni  Ni503  1  0.77777778  0.92633500  0.28183478  1.0
  Ni  Ni504  1  0.00000000  0.06407367  0.23114465  1.0
  Ni  Ni505  1  0.00000000  0.39740700  0.23114465  1.0
  Ni  Ni506  1  0.00000000  0.73074033  0.23114465  1.0
  Ni  Ni507  1  0.33333333  0.06407367  0.23114465  1.0
  Ni  Ni508  1  0.33333333  0.39740700  0.23114465  1.0
  Ni  Ni509  1  0.33333333  0.73074033  0.23114465  1.0
  Ni  Ni510  1  0.66666667  0.06407367  0.23114465  1.0
  Ni  Ni511  1  0.66666667  0.39740700  0.23114465  1.0
  Ni  Ni512  1  0.66666667  0.73074033  0.23114465  1.0
  Ni  Ni513  1  0.00000000  0.23074033  0.33114465  1.0
  Ni  Ni514  1  0.00000000  0.56407367  0.33114465  1.0
  Ni  Ni515  1  0.00000000  0.89740700  0.33114465  1.0
  Ni  Ni516  1  0.33333333  0.23074033  0.33114465  1.0
  Ni  Ni517  1  0.33333333  0.56407367  0.33114465  1.0
  Ni  Ni518  1  0.33333333  0.89740700  0.33114465  1.0
  Ni  Ni519  1  0.66666667  0.23074033  0.33114465  1.0
  Ni  Ni520  1  0.66666667  0.56407367  0.33114465  1.0
  Ni  Ni521  1  0.66666667  0.89740700  0.33114465  1.0
  Ni  Ni522  1  0.22222222  0.09300167  0.31516812  1.0
  Ni  Ni523  1  0.22222222  0.42633500  0.31516812  1.0
  Ni  Ni524  1  0.22222222  0.75966833  0.31516812  1.0
  Ni  Ni525  1  0.55555556  0.09300167  0.31516812  1.0
  Ni  Ni526  1  0.55555556  0.42633500  0.31516812  1.0
  Ni  Ni527  1  0.55555556  0.75966833  0.31516812  1.0
  Ni  Ni528  1  0.88888889  0.09300167  0.31516812  1.0
  Ni  Ni529  1  0.88888889  0.42633500  0.31516812  1.0
  Ni  Ni530  1  0.88888889  0.75966833  0.31516812  1.0
  Ni  Ni531  1  0.22222222  0.25966833  0.21516812  1.0
  Ni  Ni532  1  0.22222222  0.59300167  0.21516812  1.0
  Ni  Ni533  1  0.22222222  0.92633500  0.21516812  1.0
  Ni  Ni534  1  0.55555556  0.25966833  0.21516812  1.0
  Ni  Ni535  1  0.55555556  0.59300167  0.21516812  1.0
  Ni  Ni536  1  0.55555556  0.92633500  0.21516812  1.0
  Ni  Ni537  1  0.88888889  0.25966833  0.21516812  1.0
  Ni  Ni538  1  0.88888889  0.59300167  0.21516812  1.0
  Ni  Ni539  1  0.88888889  0.92633500  0.21516812  1.0
  Ni  Ni540  1  0.22927017  0.01986067  0.20461685  1.0
  Ni  Ni541  1  0.22927017  0.35319400  0.20461685  1.0
  Ni  Ni542  1  0.22927017  0.68652733  0.20461685  1.0
  Ni  Ni543  1  0.56260350  0.01986067  0.20461685  1.0
  Ni  Ni544  1  0.56260350  0.35319400  0.20461685  1.0
  Ni  Ni545  1  0.56260350  0.68652733  0.20461685  1.0
  Ni  Ni546  1  0.89593683  0.01986067  0.20461685  1.0
  Ni  Ni547  1  0.89593683  0.35319400  0.20461685  1.0
  Ni  Ni548  1  0.89593683  0.68652733  0.20461685  1.0
  Ni  Ni549  1  0.22927017  0.18652733  0.30461685  1.0
  Ni  Ni550  1  0.22927017  0.51986067  0.30461685  1.0
  Ni  Ni551  1  0.22927017  0.85319400  0.30461685  1.0
  Ni  Ni552  1  0.56260350  0.18652733  0.30461685  1.0
  Ni  Ni553  1  0.56260350  0.51986067  0.30461685  1.0
  Ni  Ni554  1  0.56260350  0.85319400  0.30461685  1.0
  Ni  Ni555  1  0.89593683  0.18652733  0.30461685  1.0
  Ni  Ni556  1  0.89593683  0.51986067  0.30461685  1.0
  Ni  Ni557  1  0.89593683  0.85319400  0.30461685  1.0
  Ni  Ni558  1  0.10406317  0.01986067  0.26705475  1.0
  Ni  Ni559  1  0.10406317  0.35319400  0.26705475  1.0
  Ni  Ni560  1  0.10406317  0.68652733  0.26705475  1.0
  Ni  Ni561  1  0.43739650  0.01986067  0.26705475  1.0
  Ni  Ni562  1  0.43739650  0.35319400  0.26705475  1.0
  Ni  Ni563  1  0.43739650  0.68652733  0.26705475  1.0
  Ni  Ni564  1  0.77072983  0.01986067  0.26705475  1.0
  Ni  Ni565  1  0.77072983  0.35319400  0.26705475  1.0
  Ni  Ni566  1  0.77072983  0.68652733  0.26705475  1.0
  Ni  Ni567  1  0.10406317  0.18652733  0.36705475  1.0
  Ni  Ni568  1  0.10406317  0.51986067  0.36705475  1.0
  Ni  Ni569  1  0.10406317  0.85319400  0.36705475  1.0
  Ni  Ni570  1  0.43739650  0.18652733  0.36705475  1.0
  Ni  Ni571  1  0.43739650  0.51986067  0.36705475  1.0
  Ni  Ni572  1  0.43739650  0.85319400  0.36705475  1.0
  Ni  Ni573  1  0.77072983  0.18652733  0.36705475  1.0
  Ni  Ni574  1  0.77072983  0.51986067  0.36705475  1.0
  Ni  Ni575  1  0.77072983  0.85319400  0.36705475  1.0
  Ni  Ni576  1  0.00000000  0.01986067  0.34217895  1.0
  Ni  Ni577  1  0.00000000  0.35319400  0.34217895  1.0
  Ni  Ni578  1  0.00000000  0.68652733  0.34217895  1.0
  Ni  Ni579  1  0.33333333  0.01986067  0.34217895  1.0
  Ni  Ni580  1  0.33333333  0.35319400  0.34217895  1.0
  Ni  Ni581  1  0.33333333  0.68652733  0.34217895  1.0
  Ni  Ni582  1  0.66666667  0.01986067  0.34217895  1.0
  Ni  Ni583  1  0.66666667  0.35319400  0.34217895  1.0
  Ni  Ni584  1  0.66666667  0.68652733  0.34217895  1.0
  Ni  Ni585  1  0.00000000  0.18652733  0.24217895  1.0
  Ni  Ni586  1  0.00000000  0.51986067  0.24217895  1.0
  Ni  Ni587  1  0.00000000  0.85319400  0.24217895  1.0
  Ni  Ni588  1  0.33333333  0.18652733  0.24217895  1.0
  Ni  Ni589  1  0.33333333  0.51986067  0.24217895  1.0
  Ni  Ni590  1  0.33333333  0.85319400  0.24217895  1.0
  Ni  Ni591  1  0.66666667  0.18652733  0.24217895  1.0
  Ni  Ni592  1  0.66666667  0.51986067  0.24217895  1.0
  Ni  Ni593  1  0.66666667  0.85319400  0.24217895  1.0
  Ni  Ni594  1  0.00000000  0.14010633  0.34868035  1.0
  Ni  Ni595  1  0.00000000  0.47343967  0.34868035  1.0
  Ni  Ni596  1  0.00000000  0.80677300  0.34868035  1.0
  Ni  Ni597  1  0.33333333  0.14010633  0.34868035  1.0
  Ni  Ni598  1  0.33333333  0.47343967  0.34868035  1.0
  Ni  Ni599  1  0.33333333  0.80677300  0.34868035  1.0
  Ni  Ni600  1  0.66666667  0.14010633  0.34868035  1.0
  Ni  Ni601  1  0.66666667  0.47343967  0.34868035  1.0
  Ni  Ni602  1  0.66666667  0.80677300  0.34868035  1.0
  Ni  Ni603  1  0.00000000  0.30677300  0.24868035  1.0
  Ni  Ni604  1  0.00000000  0.64010633  0.24868035  1.0
  Ni  Ni605  1  0.00000000  0.97343967  0.24868035  1.0
  Ni  Ni606  1  0.33333333  0.30677300  0.24868035  1.0
  Ni  Ni607  1  0.33333333  0.64010633  0.24868035  1.0
  Ni  Ni608  1  0.33333333  0.97343967  0.24868035  1.0
  Ni  Ni609  1  0.66666667  0.30677300  0.24868035  1.0
  Ni  Ni610  1  0.66666667  0.64010633  0.24868035  1.0
  Ni  Ni611  1  0.66666667  0.97343967  0.24868035  1.0
  Ni  Ni612  1  0.11986017  0.14010633  0.27676425  1.0
  Ni  Ni613  1  0.11986017  0.47343967  0.27676425  1.0
  Ni  Ni614  1  0.11986017  0.80677300  0.27676425  1.0
  Ni  Ni615  1  0.45319350  0.14010633  0.27676425  1.0
  Ni  Ni616  1  0.45319350  0.47343967  0.27676425  1.0
  Ni  Ni617  1  0.45319350  0.80677300  0.27676425  1.0
  Ni  Ni618  1  0.78652683  0.14010633  0.27676425  1.0
  Ni  Ni619  1  0.78652683  0.47343967  0.27676425  1.0
  Ni  Ni620  1  0.78652683  0.80677300  0.27676425  1.0
  Ni  Ni621  1  0.11986017  0.30677300  0.37676425  1.0
  Ni  Ni622  1  0.11986017  0.64010633  0.37676425  1.0
  Ni  Ni623  1  0.11986017  0.97343967  0.37676425  1.0
  Ni  Ni624  1  0.45319350  0.30677300  0.37676425  1.0
  Ni  Ni625  1  0.45319350  0.64010633  0.37676425  1.0
  Ni  Ni626  1  0.45319350  0.97343967  0.37676425  1.0
  Ni  Ni627  1  0.78652683  0.30677300  0.37676425  1.0
  Ni  Ni628  1  0.78652683  0.64010633  0.37676425  1.0
  Ni  Ni629  1  0.78652683  0.97343967  0.37676425  1.0
  Ni  Ni630  1  0.21347317  0.14010633  0.20484815  1.0
  Ni  Ni631  1  0.21347317  0.47343967  0.20484815  1.0
  Ni  Ni632  1  0.21347317  0.80677300  0.20484815  1.0
  Ni  Ni633  1  0.54680650  0.14010633  0.20484815  1.0
  Ni  Ni634  1  0.54680650  0.47343967  0.20484815  1.0
  Ni  Ni635  1  0.54680650  0.80677300  0.20484815  1.0
  Ni  Ni636  1  0.88013983  0.14010633  0.20484815  1.0
  Ni  Ni637  1  0.88013983  0.47343967  0.20484815  1.0
  Ni  Ni638  1  0.88013983  0.80677300  0.20484815  1.0
  Ni  Ni639  1  0.21347317  0.30677300  0.30484815  1.0
  Ni  Ni640  1  0.21347317  0.64010633  0.30484815  1.0
  Ni  Ni641  1  0.21347317  0.97343967  0.30484815  1.0
  Ni  Ni642  1  0.54680650  0.30677300  0.30484815  1.0
  Ni  Ni643  1  0.54680650  0.64010633  0.30484815  1.0
  Ni  Ni644  1  0.54680650  0.97343967  0.30484815  1.0
  Ni  Ni645  1  0.88013983  0.30677300  0.30484815  1.0
  Ni  Ni646  1  0.88013983  0.64010633  0.30484815  1.0
  Ni  Ni647  1  0.88013983  0.97343967  0.30484815  1.0
