# generated using pymatgen
data_TiNi
_symmetry_space_group_name_H-M   'P 1'
_cell_length_a   19.04767488
_cell_length_b   28.24672474
_cell_length_c   26.48845764
_cell_angle_alpha   88.57554018
_cell_angle_beta   83.81676388
_cell_angle_gamma   78.14175976
_symmetry_Int_Tables_number   1
_chemical_formula_structural   TiNi
_chemical_formula_sum   'Ti216 Ni216'
_cell_volume   13866.36279175
_cell_formula_units_Z   216
loop_
 _symmetry_equiv_pos_site_id
 _symmetry_equiv_pos_as_xyz
  1  'x, y, z'
loop_
 _atom_site_type_symbol
 _atom_site_label
 _atom_site_symmetry_multiplicity
 _atom_site_fract_x
 _atom_site_fract_y
 _atom_site_fract_z
 _atom_site_occupancy
  Ni  Ni0  1  0.17783529  0.21864249  0.95231961  1.0
  Ni  Ni1  1  0.17783529  0.55197582  0.95231961  1.0
  Ni  Ni2  1  0.17783529  0.88530915  0.95231961  1.0
  Ni  Ni3  1  0.51116862  0.21864249  0.95231961  1.0
  Ni  Ni4  1  0.51116862  0.55197582  0.95231961  1.0
  Ni  Ni5  1  0.51116862  0.88530915  0.95231961  1.0
  Ni  Ni6  1  0.84450195  0.21864249  0.95231961  1.0
  Ni  Ni7  1  0.84450195  0.55197582  0.95231961  1.0
  Ni  Ni8  1  0.84450195  0.88530915  0.95231961  1.0
  Ni  Ni9  1  0.27307338  0.32578535  0.98803389  1.0
  Ni  Ni10  1  0.27307338  0.65911868  0.98803389  1.0
  Ni  Ni11  1  0.27307338  0.99245201  0.98803389  1.0
  Ni  Ni12  1  0.60640671  0.32578535  0.98803389  1.0
  Ni  Ni13  1  0.60640671  0.65911868  0.98803389  1.0
  Ni  Ni14  1  0.60640671  0.99245201  0.98803389  1.0
  Ni  Ni15  1  0.93974005  0.32578535  0.98803389  1.0
  Ni  Ni16  1  0.93974005  0.65911868  0.98803389  1.0
  Ni  Ni17  1  0.93974005  0.99245201  0.98803389  1.0
  Ni  Ni18  1  0.29835519  0.23373846  0.97625182  1.0
  Ni  Ni19  1  0.29835519  0.56707180  0.97625182  1.0
  Ni  Ni20  1  0.29835519  0.90040513  0.97625182  1.0
  Ni  Ni21  1  0.63168852  0.23373846  0.97625182  1.0
  Ni  Ni22  1  0.63168852  0.56707180  0.97625182  1.0
  Ni  Ni23  1  0.63168852  0.90040513  0.97625182  1.0
  Ni  Ni24  1  0.96502186  0.23373846  0.97625182  1.0
  Ni  Ni25  1  0.96502186  0.56707180  0.97625182  1.0
  Ni  Ni26  1  0.96502186  0.90040513  0.97625182  1.0
  Ni  Ni27  1  0.20311710  0.12659561  0.94053754  1.0
  Ni  Ni28  1  0.20311710  0.45992894  0.94053754  1.0
  Ni  Ni29  1  0.20311710  0.79326227  0.94053754  1.0
  Ni  Ni30  1  0.53645043  0.12659561  0.94053754  1.0
  Ni  Ni31  1  0.53645043  0.45992894  0.94053754  1.0
  Ni  Ni32  1  0.53645043  0.79326227  0.94053754  1.0
  Ni  Ni33  1  0.86978376  0.12659561  0.94053754  1.0
  Ni  Ni34  1  0.86978376  0.45992894  0.94053754  1.0
  Ni  Ni35  1  0.86978376  0.79326227  0.94053754  1.0
  Ni  Ni36  1  0.32069243  0.00435677  0.88089104  1.0
  Ni  Ni37  1  0.32069243  0.33769011  0.88089104  1.0
  Ni  Ni38  1  0.32069243  0.67102344  0.88089104  1.0
  Ni  Ni39  1  0.65402576  0.00435677  0.88089104  1.0
  Ni  Ni40  1  0.65402576  0.33769011  0.88089104  1.0
  Ni  Ni41  1  0.65402576  0.67102344  0.88089104  1.0
  Ni  Ni42  1  0.98735910  0.00435677  0.88089104  1.0
  Ni  Ni43  1  0.98735910  0.33769011  0.88089104  1.0
  Ni  Ni44  1  0.98735910  0.67102344  0.88089104  1.0
  Ni  Ni45  1  0.08259719  0.11149963  0.91660532  1.0
  Ni  Ni46  1  0.08259719  0.44483296  0.91660532  1.0
  Ni  Ni47  1  0.08259719  0.77816630  0.91660532  1.0
  Ni  Ni48  1  0.41593052  0.11149963  0.91660532  1.0
  Ni  Ni49  1  0.41593052  0.44483296  0.91660532  1.0
  Ni  Ni50  1  0.41593052  0.77816630  0.91660532  1.0
  Ni  Ni51  1  0.74926386  0.11149963  0.91660532  1.0
  Ni  Ni52  1  0.74926386  0.44483296  0.91660532  1.0
  Ni  Ni53  1  0.74926386  0.77816630  0.91660532  1.0
  Ni  Ni54  1  0.10787900  0.01945275  0.90482325  1.0
  Ni  Ni55  1  0.10787900  0.35278608  0.90482325  1.0
  Ni  Ni56  1  0.10787900  0.68611942  0.90482325  1.0
  Ni  Ni57  1  0.44121233  0.01945275  0.90482325  1.0
  Ni  Ni58  1  0.44121233  0.35278608  0.90482325  1.0
  Ni  Ni59  1  0.44121233  0.68611942  0.90482325  1.0
  Ni  Ni60  1  0.77454567  0.01945275  0.90482325  1.0
  Ni  Ni61  1  0.77454567  0.35278608  0.90482325  1.0
  Ni  Ni62  1  0.77454567  0.68611942  0.90482325  1.0
  Ni  Ni63  1  0.01264090  0.24564323  0.86910896  1.0
  Ni  Ni64  1  0.01264090  0.57897656  0.86910896  1.0
  Ni  Ni65  1  0.01264090  0.91230989  0.86910896  1.0
  Ni  Ni66  1  0.34597424  0.24564323  0.86910896  1.0
  Ni  Ni67  1  0.34597424  0.57897656  0.86910896  1.0
  Ni  Ni68  1  0.34597424  0.91230989  0.86910896  1.0
  Ni  Ni69  1  0.67930757  0.24564323  0.86910896  1.0
  Ni  Ni70  1  0.67930757  0.57897656  0.86910896  1.0
  Ni  Ni71  1  0.67930757  0.91230989  0.86910896  1.0
  Ni  Ni72  1  0.13021624  0.12340439  0.80946246  1.0
  Ni  Ni73  1  0.13021624  0.45673773  0.80946246  1.0
  Ni  Ni74  1  0.13021624  0.79007106  0.80946246  1.0
  Ni  Ni75  1  0.46354957  0.12340439  0.80946246  1.0
  Ni  Ni76  1  0.46354957  0.45673773  0.80946246  1.0
  Ni  Ni77  1  0.46354957  0.79007106  0.80946246  1.0
  Ni  Ni78  1  0.79688290  0.12340439  0.80946246  1.0
  Ni  Ni79  1  0.79688290  0.45673773  0.80946246  1.0
  Ni  Ni80  1  0.79688290  0.79007106  0.80946246  1.0
  Ni  Ni81  1  0.22545433  0.23054725  0.84517675  1.0
  Ni  Ni82  1  0.22545433  0.56388058  0.84517675  1.0
  Ni  Ni83  1  0.22545433  0.89721392  0.84517675  1.0
  Ni  Ni84  1  0.55878767  0.23054725  0.84517675  1.0
  Ni  Ni85  1  0.55878767  0.56388058  0.84517675  1.0
  Ni  Ni86  1  0.55878767  0.89721392  0.84517675  1.0
  Ni  Ni87  1  0.89212100  0.23054725  0.84517675  1.0
  Ni  Ni88  1  0.89212100  0.56388058  0.84517675  1.0
  Ni  Ni89  1  0.89212100  0.89721392  0.84517675  1.0
  Ni  Ni90  1  0.25073614  0.13850037  0.83339468  1.0
  Ni  Ni91  1  0.25073614  0.47183370  0.83339468  1.0
  Ni  Ni92  1  0.25073614  0.80516704  0.83339468  1.0
  Ni  Ni93  1  0.58406948  0.13850037  0.83339468  1.0
  Ni  Ni94  1  0.58406948  0.47183370  0.83339468  1.0
  Ni  Ni95  1  0.58406948  0.80516704  0.83339468  1.0
  Ni  Ni96  1  0.91740281  0.13850037  0.83339468  1.0
  Ni  Ni97  1  0.91740281  0.47183370  0.83339468  1.0
  Ni  Ni98  1  0.91740281  0.80516704  0.83339468  1.0
  Ni  Ni99  1  0.15549805  0.03135751  0.79768039  1.0
  Ni  Ni100  1  0.15549805  0.36469085  0.79768039  1.0
  Ni  Ni101  1  0.15549805  0.69802418  0.79768039  1.0
  Ni  Ni102  1  0.48883138  0.03135751  0.79768039  1.0
  Ni  Ni103  1  0.48883138  0.36469085  0.79768039  1.0
  Ni  Ni104  1  0.48883138  0.69802418  0.79768039  1.0
  Ni  Ni105  1  0.82216471  0.03135751  0.79768039  1.0
  Ni  Ni106  1  0.82216471  0.36469085  0.79768039  1.0
  Ni  Ni107  1  0.82216471  0.69802418  0.79768039  1.0
  Ni  Ni108  1  0.27307338  0.24245201  0.73803389  1.0
  Ni  Ni109  1  0.27307338  0.57578535  0.73803389  1.0
  Ni  Ni110  1  0.27307338  0.90911868  0.73803389  1.0
  Ni  Ni111  1  0.60640671  0.24245201  0.73803389  1.0
  Ni  Ni112  1  0.60640671  0.57578535  0.73803389  1.0
  Ni  Ni113  1  0.60640671  0.90911868  0.73803389  1.0
  Ni  Ni114  1  0.93974005  0.24245201  0.73803389  1.0
  Ni  Ni115  1  0.93974005  0.57578535  0.73803389  1.0
  Ni  Ni116  1  0.93974005  0.90911868  0.73803389  1.0
  Ni  Ni117  1  0.03497814  0.01626154  0.77374818  1.0
  Ni  Ni118  1  0.03497814  0.34959487  0.77374818  1.0
  Ni  Ni119  1  0.03497814  0.68292820  0.77374818  1.0
  Ni  Ni120  1  0.36831148  0.01626154  0.77374818  1.0
  Ni  Ni121  1  0.36831148  0.34959487  0.77374818  1.0
  Ni  Ni122  1  0.36831148  0.68292820  0.77374818  1.0
  Ni  Ni123  1  0.70164481  0.01626154  0.77374818  1.0
  Ni  Ni124  1  0.70164481  0.34959487  0.77374818  1.0
  Ni  Ni125  1  0.70164481  0.68292820  0.77374818  1.0
  Ni  Ni126  1  0.06025995  0.25754799  0.76196611  1.0
  Ni  Ni127  1  0.06025995  0.59088132  0.76196611  1.0
  Ni  Ni128  1  0.06025995  0.92421465  0.76196611  1.0
  Ni  Ni129  1  0.39359329  0.25754799  0.76196611  1.0
  Ni  Ni130  1  0.39359329  0.59088132  0.76196611  1.0
  Ni  Ni131  1  0.39359329  0.92421465  0.76196611  1.0
  Ni  Ni132  1  0.72692662  0.25754799  0.76196611  1.0
  Ni  Ni133  1  0.72692662  0.59088132  0.76196611  1.0
  Ni  Ni134  1  0.72692662  0.92421465  0.76196611  1.0
  Ni  Ni135  1  0.29835519  0.15040513  0.72625182  1.0
  Ni  Ni136  1  0.29835519  0.48373846  0.72625182  1.0
  Ni  Ni137  1  0.29835519  0.81707180  0.72625182  1.0
  Ni  Ni138  1  0.63168852  0.15040513  0.72625182  1.0
  Ni  Ni139  1  0.63168852  0.48373846  0.72625182  1.0
  Ni  Ni140  1  0.63168852  0.81707180  0.72625182  1.0
  Ni  Ni141  1  0.96502186  0.15040513  0.72625182  1.0
  Ni  Ni142  1  0.96502186  0.48373846  0.72625182  1.0
  Ni  Ni143  1  0.96502186  0.81707180  0.72625182  1.0
  Ni  Ni144  1  0.08259719  0.02816630  0.66660532  1.0
  Ni  Ni145  1  0.08259719  0.36149963  0.66660532  1.0
  Ni  Ni146  1  0.08259719  0.69483296  0.66660532  1.0
  Ni  Ni147  1  0.41593052  0.02816630  0.66660532  1.0
  Ni  Ni148  1  0.41593052  0.36149963  0.66660532  1.0
  Ni  Ni149  1  0.41593052  0.69483296  0.66660532  1.0
  Ni  Ni150  1  0.74926386  0.02816630  0.66660532  1.0
  Ni  Ni151  1  0.74926386  0.36149963  0.66660532  1.0
  Ni  Ni152  1  0.74926386  0.69483296  0.66660532  1.0
  Ni  Ni153  1  0.17783529  0.13530915  0.70231961  1.0
  Ni  Ni154  1  0.17783529  0.46864249  0.70231961  1.0
  Ni  Ni155  1  0.17783529  0.80197582  0.70231961  1.0
  Ni  Ni156  1  0.51116862  0.13530915  0.70231961  1.0
  Ni  Ni157  1  0.51116862  0.46864249  0.70231961  1.0
  Ni  Ni158  1  0.51116862  0.80197582  0.70231961  1.0
  Ni  Ni159  1  0.84450195  0.13530915  0.70231961  1.0
  Ni  Ni160  1  0.84450195  0.46864249  0.70231961  1.0
  Ni  Ni161  1  0.84450195  0.80197582  0.70231961  1.0
  Ni  Ni162  1  0.20311710  0.04326227  0.69053754  1.0
  Ni  Ni163  1  0.20311710  0.37659561  0.69053754  1.0
  Ni  Ni164  1  0.20311710  0.70992894  0.69053754  1.0
  Ni  Ni165  1  0.53645043  0.04326227  0.69053754  1.0
  Ni  Ni166  1  0.53645043  0.37659561  0.69053754  1.0
  Ni  Ni167  1  0.53645043  0.70992894  0.69053754  1.0
  Ni  Ni168  1  0.86978376  0.04326227  0.69053754  1.0
  Ni  Ni169  1  0.86978376  0.37659561  0.69053754  1.0
  Ni  Ni170  1  0.86978376  0.70992894  0.69053754  1.0
  Ni  Ni171  1  0.10787900  0.26945275  0.65482325  1.0
  Ni  Ni172  1  0.10787900  0.60278608  0.65482325  1.0
  Ni  Ni173  1  0.10787900  0.93611942  0.65482325  1.0
  Ni  Ni174  1  0.44121233  0.26945275  0.65482325  1.0
  Ni  Ni175  1  0.44121233  0.60278608  0.65482325  1.0
  Ni  Ni176  1  0.44121233  0.93611942  0.65482325  1.0
  Ni  Ni177  1  0.77454567  0.26945275  0.65482325  1.0
  Ni  Ni178  1  0.77454567  0.60278608  0.65482325  1.0
  Ni  Ni179  1  0.77454567  0.93611942  0.65482325  1.0
  Ni  Ni180  1  0.22545433  0.14721392  0.59517675  1.0
  Ni  Ni181  1  0.22545433  0.48054725  0.59517675  1.0
  Ni  Ni182  1  0.22545433  0.81388058  0.59517675  1.0
  Ni  Ni183  1  0.55878767  0.14721392  0.59517675  1.0
  Ni  Ni184  1  0.55878767  0.48054725  0.59517675  1.0
  Ni  Ni185  1  0.55878767  0.81388058  0.59517675  1.0
  Ni  Ni186  1  0.89212100  0.14721392  0.59517675  1.0
  Ni  Ni187  1  0.89212100  0.48054725  0.59517675  1.0
  Ni  Ni188  1  0.89212100  0.81388058  0.59517675  1.0
  Ni  Ni189  1  0.32069243  0.25435677  0.63089104  1.0
  Ni  Ni190  1  0.32069243  0.58769011  0.63089104  1.0
  Ni  Ni191  1  0.32069243  0.92102344  0.63089104  1.0
  Ni  Ni192  1  0.65402576  0.25435677  0.63089104  1.0
  Ni  Ni193  1  0.65402576  0.58769011  0.63089104  1.0
  Ni  Ni194  1  0.65402576  0.92102344  0.63089104  1.0
  Ni  Ni195  1  0.98735910  0.25435677  0.63089104  1.0
  Ni  Ni196  1  0.98735910  0.58769011  0.63089104  1.0
  Ni  Ni197  1  0.98735910  0.92102344  0.63089104  1.0
  Ni  Ni198  1  0.01264090  0.16230989  0.61910896  1.0
  Ni  Ni199  1  0.01264090  0.49564323  0.61910896  1.0
  Ni  Ni200  1  0.01264090  0.82897656  0.61910896  1.0
  Ni  Ni201  1  0.34597424  0.16230989  0.61910896  1.0
  Ni  Ni202  1  0.34597424  0.49564323  0.61910896  1.0
  Ni  Ni203  1  0.34597424  0.82897656  0.61910896  1.0
  Ni  Ni204  1  0.67930757  0.16230989  0.61910896  1.0
  Ni  Ni205  1  0.67930757  0.49564323  0.61910896  1.0
  Ni  Ni206  1  0.67930757  0.82897656  0.61910896  1.0
  Ni  Ni207  1  0.25073614  0.05516704  0.58339468  1.0
  Ni  Ni208  1  0.25073614  0.38850037  0.58339468  1.0
  Ni  Ni209  1  0.25073614  0.72183370  0.58339468  1.0
  Ni  Ni210  1  0.58406948  0.05516704  0.58339468  1.0
  Ni  Ni211  1  0.58406948  0.38850037  0.58339468  1.0
  Ni  Ni212  1  0.58406948  0.72183370  0.58339468  1.0
  Ni  Ni213  1  0.91740281  0.05516704  0.58339468  1.0
  Ni  Ni214  1  0.91740281  0.38850037  0.58339468  1.0
  Ni  Ni215  1  0.91740281  0.72183370  0.58339468  1.0
  Ti  Ti216  1  0.06117729  0.28021199  0.94259811  1.0
  Ti  Ti217  1  0.06117729  0.61354532  0.94259811  1.0
  Ti  Ti218  1  0.06117729  0.94687865  0.94259811  1.0
  Ti  Ti219  1  0.39451062  0.28021199  0.94259811  1.0
  Ti  Ti220  1  0.39451062  0.61354532  0.94259811  1.0
  Ti  Ti221  1  0.39451062  0.94687865  0.94259811  1.0
  Ti  Ti222  1  0.72784395  0.28021199  0.94259811  1.0
  Ti  Ti223  1  0.72784395  0.61354532  0.94259811  1.0
  Ti  Ti224  1  0.72784395  0.94687865  0.94259811  1.0
  Ti  Ti225  1  0.15641538  0.05402151  0.97831239  1.0
  Ti  Ti226  1  0.15641538  0.38735485  0.97831239  1.0
  Ti  Ti227  1  0.15641538  0.72068818  0.97831239  1.0
  Ti  Ti228  1  0.48974871  0.05402151  0.97831239  1.0
  Ti  Ti229  1  0.48974871  0.38735485  0.97831239  1.0
  Ti  Ti230  1  0.48974871  0.72068818  0.97831239  1.0
  Ti  Ti231  1  0.82308205  0.05402151  0.97831239  1.0
  Ti  Ti232  1  0.82308205  0.38735485  0.97831239  1.0
  Ti  Ti233  1  0.82308205  0.72068818  0.97831239  1.0
  Ti  Ti234  1  0.08167986  0.17216896  0.98597332  1.0
  Ti  Ti235  1  0.08167986  0.50550230  0.98597332  1.0
  Ti  Ti236  1  0.08167986  0.83883563  0.98597332  1.0
  Ti  Ti237  1  0.41501319  0.17216896  0.98597332  1.0
  Ti  Ti238  1  0.41501319  0.50550230  0.98597332  1.0
  Ti  Ti239  1  0.41501319  0.83883563  0.98597332  1.0
  Ti  Ti240  1  0.74834652  0.17216896  0.98597332  1.0
  Ti  Ti241  1  0.74834652  0.50550230  0.98597332  1.0
  Ti  Ti242  1  0.74834652  0.83883563  0.98597332  1.0
  Ti  Ti243  1  0.31977510  0.06502611  0.95025904  1.0
  Ti  Ti244  1  0.31977510  0.39835944  0.95025904  1.0
  Ti  Ti245  1  0.31977510  0.73169277  0.95025904  1.0
  Ti  Ti246  1  0.65310843  0.06502611  0.95025904  1.0
  Ti  Ti247  1  0.65310843  0.39835944  0.95025904  1.0
  Ti  Ti248  1  0.65310843  0.73169277  0.95025904  1.0
  Ti  Ti249  1  0.98644176  0.06502611  0.95025904  1.0
  Ti  Ti250  1  0.98644176  0.39835944  0.95025904  1.0
  Ti  Ti251  1  0.98644176  0.73169277  0.95025904  1.0
  Ti  Ti252  1  0.20403443  0.06592627  0.87116954  1.0
  Ti  Ti253  1  0.20403443  0.39925961  0.87116954  1.0
  Ti  Ti254  1  0.20403443  0.73259294  0.87116954  1.0
  Ti  Ti255  1  0.53736776  0.06592627  0.87116954  1.0
  Ti  Ti256  1  0.53736776  0.39925961  0.87116954  1.0
  Ti  Ti257  1  0.53736776  0.73259294  0.87116954  1.0
  Ti  Ti258  1  0.87070110  0.06592627  0.87116954  1.0
  Ti  Ti259  1  0.87070110  0.39925961  0.87116954  1.0
  Ti  Ti260  1  0.87070110  0.73259294  0.87116954  1.0
  Ti  Ti261  1  0.29927252  0.17306913  0.90688382  1.0
  Ti  Ti262  1  0.29927252  0.50640246  0.90688382  1.0
  Ti  Ti263  1  0.29927252  0.83973580  0.90688382  1.0
  Ti  Ti264  1  0.63260586  0.17306913  0.90688382  1.0
  Ti  Ti265  1  0.63260586  0.50640246  0.90688382  1.0
  Ti  Ti266  1  0.63260586  0.83973580  0.90688382  1.0
  Ti  Ti267  1  0.96593919  0.17306913  0.90688382  1.0
  Ti  Ti268  1  0.96593919  0.50640246  0.90688382  1.0
  Ti  Ti269  1  0.96593919  0.83973580  0.90688382  1.0
  Ti  Ti270  1  0.22453700  0.29121658  0.91454475  1.0
  Ti  Ti271  1  0.22453700  0.62454992  0.91454475  1.0
  Ti  Ti272  1  0.22453700  0.95788325  0.91454475  1.0
  Ti  Ti273  1  0.55787033  0.29121658  0.91454475  1.0
  Ti  Ti274  1  0.55787033  0.62454992  0.91454475  1.0
  Ti  Ti275  1  0.55787033  0.95788325  0.91454475  1.0
  Ti  Ti276  1  0.89120367  0.29121658  0.91454475  1.0
  Ti  Ti277  1  0.89120367  0.62454992  0.91454475  1.0
  Ti  Ti278  1  0.89120367  0.95788325  0.91454475  1.0
  Ti  Ti279  1  0.12929890  0.18407373  0.87883046  1.0
  Ti  Ti280  1  0.12929890  0.51740706  0.87883046  1.0
  Ti  Ti281  1  0.12929890  0.85074039  0.87883046  1.0
  Ti  Ti282  1  0.46263224  0.18407373  0.87883046  1.0
  Ti  Ti283  1  0.46263224  0.51740706  0.87883046  1.0
  Ti  Ti284  1  0.46263224  0.85074039  0.87883046  1.0
  Ti  Ti285  1  0.79596557  0.18407373  0.87883046  1.0
  Ti  Ti286  1  0.79596557  0.51740706  0.87883046  1.0
  Ti  Ti287  1  0.79596557  0.85074039  0.87883046  1.0
  Ti  Ti288  1  0.01355824  0.18497389  0.79974096  1.0
  Ti  Ti289  1  0.01355824  0.51830723  0.79974096  1.0
  Ti  Ti290  1  0.01355824  0.85164056  0.79974096  1.0
  Ti  Ti291  1  0.34689157  0.18497389  0.79974096  1.0
  Ti  Ti292  1  0.34689157  0.51830723  0.79974096  1.0
  Ti  Ti293  1  0.34689157  0.85164056  0.79974096  1.0
  Ti  Ti294  1  0.68022490  0.18497389  0.79974096  1.0
  Ti  Ti295  1  0.68022490  0.51830723  0.79974096  1.0
  Ti  Ti296  1  0.68022490  0.85164056  0.79974096  1.0
  Ti  Ti297  1  0.10879633  0.29211675  0.83545525  1.0
  Ti  Ti298  1  0.10879633  0.62545008  0.83545525  1.0
  Ti  Ti299  1  0.10879633  0.95878342  0.83545525  1.0
  Ti  Ti300  1  0.44212967  0.29211675  0.83545525  1.0
  Ti  Ti301  1  0.44212967  0.62545008  0.83545525  1.0
  Ti  Ti302  1  0.44212967  0.95878342  0.83545525  1.0
  Ti  Ti303  1  0.77546300  0.29211675  0.83545525  1.0
  Ti  Ti304  1  0.77546300  0.62545008  0.83545525  1.0
  Ti  Ti305  1  0.77546300  0.95878342  0.83545525  1.0
  Ti  Ti306  1  0.03406081  0.07693087  0.84311618  1.0
  Ti  Ti307  1  0.03406081  0.41026420  0.84311618  1.0
  Ti  Ti308  1  0.03406081  0.74359754  0.84311618  1.0
  Ti  Ti309  1  0.36739414  0.07693087  0.84311618  1.0
  Ti  Ti310  1  0.36739414  0.41026420  0.84311618  1.0
  Ti  Ti311  1  0.36739414  0.74359754  0.84311618  1.0
  Ti  Ti312  1  0.70072748  0.07693087  0.84311618  1.0
  Ti  Ti313  1  0.70072748  0.41026420  0.84311618  1.0
  Ti  Ti314  1  0.70072748  0.74359754  0.84311618  1.0
  Ti  Ti315  1  0.27215605  0.30312135  0.80740189  1.0
  Ti  Ti316  1  0.27215605  0.63645468  0.80740189  1.0
  Ti  Ti317  1  0.27215605  0.96978801  0.80740189  1.0
  Ti  Ti318  1  0.60548938  0.30312135  0.80740189  1.0
  Ti  Ti319  1  0.60548938  0.63645468  0.80740189  1.0
  Ti  Ti320  1  0.60548938  0.96978801  0.80740189  1.0
  Ti  Ti321  1  0.93882271  0.30312135  0.80740189  1.0
  Ti  Ti322  1  0.93882271  0.63645468  0.80740189  1.0
  Ti  Ti323  1  0.93882271  0.96978801  0.80740189  1.0
  Ti  Ti324  1  0.15641538  0.30402151  0.72831239  1.0
  Ti  Ti325  1  0.15641538  0.63735485  0.72831239  1.0
  Ti  Ti326  1  0.15641538  0.97068818  0.72831239  1.0
  Ti  Ti327  1  0.48974871  0.30402151  0.72831239  1.0
  Ti  Ti328  1  0.48974871  0.63735485  0.72831239  1.0
  Ti  Ti329  1  0.48974871  0.97068818  0.72831239  1.0
  Ti  Ti330  1  0.82308205  0.30402151  0.72831239  1.0
  Ti  Ti331  1  0.82308205  0.63735485  0.72831239  1.0
  Ti  Ti332  1  0.82308205  0.97068818  0.72831239  1.0
  Ti  Ti333  1  0.25165348  0.07783104  0.76402668  1.0
  Ti  Ti334  1  0.25165348  0.41116437  0.76402668  1.0
  Ti  Ti335  1  0.25165348  0.74449770  0.76402668  1.0
  Ti  Ti336  1  0.58498681  0.07783104  0.76402668  1.0
  Ti  Ti337  1  0.58498681  0.41116437  0.76402668  1.0
  Ti  Ti338  1  0.58498681  0.74449770  0.76402668  1.0
  Ti  Ti339  1  0.91832014  0.07783104  0.76402668  1.0
  Ti  Ti340  1  0.91832014  0.41116437  0.76402668  1.0
  Ti  Ti341  1  0.91832014  0.74449770  0.76402668  1.0
  Ti  Ti342  1  0.17691795  0.19597849  0.77168761  1.0
  Ti  Ti343  1  0.17691795  0.52931182  0.77168761  1.0
  Ti  Ti344  1  0.17691795  0.86264515  0.77168761  1.0
  Ti  Ti345  1  0.51025129  0.19597849  0.77168761  1.0
  Ti  Ti346  1  0.51025129  0.52931182  0.77168761  1.0
  Ti  Ti347  1  0.51025129  0.86264515  0.77168761  1.0
  Ti  Ti348  1  0.84358462  0.19597849  0.77168761  1.0
  Ti  Ti349  1  0.84358462  0.52931182  0.77168761  1.0
  Ti  Ti350  1  0.84358462  0.86264515  0.77168761  1.0
  Ti  Ti351  1  0.08167986  0.08883563  0.73597332  1.0
  Ti  Ti352  1  0.08167986  0.42216896  0.73597332  1.0
  Ti  Ti353  1  0.08167986  0.75550230  0.73597332  1.0
  Ti  Ti354  1  0.41501319  0.08883563  0.73597332  1.0
  Ti  Ti355  1  0.41501319  0.42216896  0.73597332  1.0
  Ti  Ti356  1  0.41501319  0.75550230  0.73597332  1.0
  Ti  Ti357  1  0.74834652  0.08883563  0.73597332  1.0
  Ti  Ti358  1  0.74834652  0.42216896  0.73597332  1.0
  Ti  Ti359  1  0.74834652  0.75550230  0.73597332  1.0
  Ti  Ti360  1  0.29927252  0.08973580  0.65688382  1.0
  Ti  Ti361  1  0.29927252  0.42306913  0.65688382  1.0
  Ti  Ti362  1  0.29927252  0.75640246  0.65688382  1.0
  Ti  Ti363  1  0.63260586  0.08973580  0.65688382  1.0
  Ti  Ti364  1  0.63260586  0.42306913  0.65688382  1.0
  Ti  Ti365  1  0.63260586  0.75640246  0.65688382  1.0
  Ti  Ti366  1  0.96593919  0.08973580  0.65688382  1.0
  Ti  Ti367  1  0.96593919  0.42306913  0.65688382  1.0
  Ti  Ti368  1  0.96593919  0.75640246  0.65688382  1.0
  Ti  Ti369  1  0.06117729  0.19687865  0.69259811  1.0
  Ti  Ti370  1  0.06117729  0.53021199  0.69259811  1.0
  Ti  Ti371  1  0.06117729  0.86354532  0.69259811  1.0
  Ti  Ti372  1  0.39451062  0.19687865  0.69259811  1.0
  Ti  Ti373  1  0.39451062  0.53021199  0.69259811  1.0
  Ti  Ti374  1  0.39451062  0.86354532  0.69259811  1.0
  Ti  Ti375  1  0.72784395  0.19687865  0.69259811  1.0
  Ti  Ti376  1  0.72784395  0.53021199  0.69259811  1.0
  Ti  Ti377  1  0.72784395  0.86354532  0.69259811  1.0
  Ti  Ti378  1  0.31977510  0.31502611  0.70025904  1.0
  Ti  Ti379  1  0.31977510  0.64835944  0.70025904  1.0
  Ti  Ti380  1  0.31977510  0.98169277  0.70025904  1.0
  Ti  Ti381  1  0.65310843  0.31502611  0.70025904  1.0
  Ti  Ti382  1  0.65310843  0.64835944  0.70025904  1.0
  Ti  Ti383  1  0.65310843  0.98169277  0.70025904  1.0
  Ti  Ti384  1  0.98644176  0.31502611  0.70025904  1.0
  Ti  Ti385  1  0.98644176  0.64835944  0.70025904  1.0
  Ti  Ti386  1  0.98644176  0.98169277  0.70025904  1.0
  Ti  Ti387  1  0.22453700  0.20788325  0.66454475  1.0
  Ti  Ti388  1  0.22453700  0.54121658  0.66454475  1.0
  Ti  Ti389  1  0.22453700  0.87454992  0.66454475  1.0
  Ti  Ti390  1  0.55787033  0.20788325  0.66454475  1.0
  Ti  Ti391  1  0.55787033  0.54121658  0.66454475  1.0
  Ti  Ti392  1  0.55787033  0.87454992  0.66454475  1.0
  Ti  Ti393  1  0.89120367  0.20788325  0.66454475  1.0
  Ti  Ti394  1  0.89120367  0.54121658  0.66454475  1.0
  Ti  Ti395  1  0.89120367  0.87454992  0.66454475  1.0
  Ti  Ti396  1  0.10879633  0.20878342  0.58545525  1.0
  Ti  Ti397  1  0.10879633  0.54211675  0.58545525  1.0
  Ti  Ti398  1  0.10879633  0.87545008  0.58545525  1.0
  Ti  Ti399  1  0.44212967  0.20878342  0.58545525  1.0
  Ti  Ti400  1  0.44212967  0.54211675  0.58545525  1.0
  Ti  Ti401  1  0.44212967  0.87545008  0.58545525  1.0
  Ti  Ti402  1  0.77546300  0.20878342  0.58545525  1.0
  Ti  Ti403  1  0.77546300  0.54211675  0.58545525  1.0
  Ti  Ti404  1  0.77546300  0.87545008  0.58545525  1.0
  Ti  Ti405  1  0.20403443  0.31592627  0.62116954  1.0
  Ti  Ti406  1  0.20403443  0.64925961  0.62116954  1.0
  Ti  Ti407  1  0.20403443  0.98259294  0.62116954  1.0
  Ti  Ti408  1  0.53736776  0.31592627  0.62116954  1.0
  Ti  Ti409  1  0.53736776  0.64925961  0.62116954  1.0
  Ti  Ti410  1  0.53736776  0.98259294  0.62116954  1.0
  Ti  Ti411  1  0.87070110  0.31592627  0.62116954  1.0
  Ti  Ti412  1  0.87070110  0.64925961  0.62116954  1.0
  Ti  Ti413  1  0.87070110  0.98259294  0.62116954  1.0
  Ti  Ti414  1  0.12929890  0.10074039  0.62883046  1.0
  Ti  Ti415  1  0.12929890  0.43407373  0.62883046  1.0
  Ti  Ti416  1  0.12929890  0.76740706  0.62883046  1.0
  Ti  Ti417  1  0.46263224  0.10074039  0.62883046  1.0
  Ti  Ti418  1  0.46263224  0.43407373  0.62883046  1.0
  Ti  Ti419  1  0.46263224  0.76740706  0.62883046  1.0
  Ti  Ti420  1  0.79596557  0.10074039  0.62883046  1.0
  Ti  Ti421  1  0.79596557  0.43407373  0.62883046  1.0
  Ti  Ti422  1  0.79596557  0.76740706  0.62883046  1.0
  Ti  Ti423  1  0.03406081  0.32693087  0.59311618  1.0
  Ti  Ti424  1  0.03406081  0.66026420  0.59311618  1.0
  Ti  Ti425  1  0.03406081  0.99359754  0.59311618  1.0
  Ti  Ti426  1  0.36739414  0.32693087  0.59311618  1.0
  Ti  Ti427  1  0.36739414  0.66026420  0.59311618  1.0
  Ti  Ti428  1  0.36739414  0.99359754  0.59311618  1.0
  Ti  Ti429  1  0.70072748  0.32693087  0.59311618  1.0
  Ti  Ti430  1  0.70072748  0.66026420  0.59311618  1.0
  Ti  Ti431  1  0.70072748  0.99359754  0.59311618  1.0
