# generated using pymatgen
data_TiNi
_symmetry_space_group_name_H-M   'P 1'
_cell_length_a   18.74798464
_cell_length_b   20.47251935
_cell_length_c   25.24265219
_cell_angle_alpha   84.00661370
_cell_angle_beta   87.88849096
_cell_angle_gamma   86.09261435
_symmetry_Int_Tables_number   1
_chemical_formula_structural   TiNi
_chemical_formula_sum   'Ti144 Ni144'
_cell_volume   9608.92396469
_cell_formula_units_Z   144
loop_
 _symmetry_equiv_pos_site_id
 _symmetry_equiv_pos_as_xyz
  1  'x, y, z'
loop_
 _atom_site_type_symbol
 _atom_site_label
 _atom_site_symmetry_multiplicity
 _atom_site_fract_x
 _atom_site_fract_y
 _atom_site_fract_z
 _atom_site_occupancy
  Ni  Ni0  1  0.32335883  0.11856243  0.93219460  1.0
  Ni  Ni1  1  0.32335883  0.45189577  0.93219460  1.0
  Ni  Ni2  1  0.32335883  0.78522910  0.93219460  1.0
  Ni  Ni3  1  0.65669217  0.11856243  0.93219460  1.0
  Ni  Ni4  1  0.65669217  0.45189577  0.93219460  1.0
  Ni  Ni5  1  0.65669217  0.78522910  0.93219460  1.0
  Ni  Ni6  1  0.99002550  0.11856243  0.93219460  1.0
  Ni  Ni7  1  0.99002550  0.45189577  0.93219460  1.0
  Ni  Ni8  1  0.99002550  0.78522910  0.93219460  1.0
  Ni  Ni9  1  0.15669217  0.25189577  0.98219460  1.0
  Ni  Ni10  1  0.15669217  0.58522910  0.98219460  1.0
  Ni  Ni11  1  0.15669217  0.91856243  0.98219460  1.0
  Ni  Ni12  1  0.49002550  0.25189577  0.98219460  1.0
  Ni  Ni13  1  0.49002550  0.58522910  0.98219460  1.0
  Ni  Ni14  1  0.49002550  0.91856243  0.98219460  1.0
  Ni  Ni15  1  0.82335883  0.25189577  0.98219460  1.0
  Ni  Ni16  1  0.82335883  0.58522910  0.98219460  1.0
  Ni  Ni17  1  0.82335883  0.91856243  0.98219460  1.0
  Ni  Ni18  1  0.00997450  0.26785497  0.98817930  1.0
  Ni  Ni19  1  0.00997450  0.60118830  0.98817930  1.0
  Ni  Ni20  1  0.00997450  0.93452163  0.98817930  1.0
  Ni  Ni21  1  0.34330783  0.26785497  0.98817930  1.0
  Ni  Ni22  1  0.34330783  0.60118830  0.98817930  1.0
  Ni  Ni23  1  0.34330783  0.93452163  0.98817930  1.0
  Ni  Ni24  1  0.67664117  0.26785497  0.98817930  1.0
  Ni  Ni25  1  0.67664117  0.60118830  0.98817930  1.0
  Ni  Ni26  1  0.67664117  0.93452163  0.98817930  1.0
  Ni  Ni27  1  0.17664117  0.13452163  0.93817930  1.0
  Ni  Ni28  1  0.17664117  0.46785497  0.93817930  1.0
  Ni  Ni29  1  0.17664117  0.80118830  0.93817930  1.0
  Ni  Ni30  1  0.50997450  0.13452163  0.93817930  1.0
  Ni  Ni31  1  0.50997450  0.46785497  0.93817930  1.0
  Ni  Ni32  1  0.50997450  0.80118830  0.93817930  1.0
  Ni  Ni33  1  0.84330783  0.13452163  0.93817930  1.0
  Ni  Ni34  1  0.84330783  0.46785497  0.93817930  1.0
  Ni  Ni35  1  0.84330783  0.80118830  0.93817930  1.0
  Ni  Ni36  1  0.32335883  0.18522910  0.83219460  1.0
  Ni  Ni37  1  0.32335883  0.51856243  0.83219460  1.0
  Ni  Ni38  1  0.32335883  0.85189577  0.83219460  1.0
  Ni  Ni39  1  0.65669217  0.18522910  0.83219460  1.0
  Ni  Ni40  1  0.65669217  0.51856243  0.83219460  1.0
  Ni  Ni41  1  0.65669217  0.85189577  0.83219460  1.0
  Ni  Ni42  1  0.99002550  0.18522910  0.83219460  1.0
  Ni  Ni43  1  0.99002550  0.51856243  0.83219460  1.0
  Ni  Ni44  1  0.99002550  0.85189577  0.83219460  1.0
  Ni  Ni45  1  0.15669217  0.31856243  0.88219460  1.0
  Ni  Ni46  1  0.15669217  0.65189577  0.88219460  1.0
  Ni  Ni47  1  0.15669217  0.98522910  0.88219460  1.0
  Ni  Ni48  1  0.49002550  0.31856243  0.88219460  1.0
  Ni  Ni49  1  0.49002550  0.65189577  0.88219460  1.0
  Ni  Ni50  1  0.49002550  0.98522910  0.88219460  1.0
  Ni  Ni51  1  0.82335883  0.31856243  0.88219460  1.0
  Ni  Ni52  1  0.82335883  0.65189577  0.88219460  1.0
  Ni  Ni53  1  0.82335883  0.98522910  0.88219460  1.0
  Ni  Ni54  1  0.00997450  0.00118830  0.88817930  1.0
  Ni  Ni55  1  0.00997450  0.33452163  0.88817930  1.0
  Ni  Ni56  1  0.00997450  0.66785497  0.88817930  1.0
  Ni  Ni57  1  0.34330783  0.00118830  0.88817930  1.0
  Ni  Ni58  1  0.34330783  0.33452163  0.88817930  1.0
  Ni  Ni59  1  0.34330783  0.66785497  0.88817930  1.0
  Ni  Ni60  1  0.67664117  0.00118830  0.88817930  1.0
  Ni  Ni61  1  0.67664117  0.33452163  0.88817930  1.0
  Ni  Ni62  1  0.67664117  0.66785497  0.88817930  1.0
  Ni  Ni63  1  0.17664117  0.20118830  0.83817930  1.0
  Ni  Ni64  1  0.17664117  0.53452163  0.83817930  1.0
  Ni  Ni65  1  0.17664117  0.86785497  0.83817930  1.0
  Ni  Ni66  1  0.50997450  0.20118830  0.83817930  1.0
  Ni  Ni67  1  0.50997450  0.53452163  0.83817930  1.0
  Ni  Ni68  1  0.50997450  0.86785497  0.83817930  1.0
  Ni  Ni69  1  0.84330783  0.20118830  0.83817930  1.0
  Ni  Ni70  1  0.84330783  0.53452163  0.83817930  1.0
  Ni  Ni71  1  0.84330783  0.86785497  0.83817930  1.0
  Ni  Ni72  1  0.32335883  0.25189577  0.73219460  1.0
  Ni  Ni73  1  0.32335883  0.58522910  0.73219460  1.0
  Ni  Ni74  1  0.32335883  0.91856243  0.73219460  1.0
  Ni  Ni75  1  0.65669217  0.25189577  0.73219460  1.0
  Ni  Ni76  1  0.65669217  0.58522910  0.73219460  1.0
  Ni  Ni77  1  0.65669217  0.91856243  0.73219460  1.0
  Ni  Ni78  1  0.99002550  0.25189577  0.73219460  1.0
  Ni  Ni79  1  0.99002550  0.58522910  0.73219460  1.0
  Ni  Ni80  1  0.99002550  0.91856243  0.73219460  1.0
  Ni  Ni81  1  0.15669217  0.05189577  0.78219460  1.0
  Ni  Ni82  1  0.15669217  0.38522910  0.78219460  1.0
  Ni  Ni83  1  0.15669217  0.71856243  0.78219460  1.0
  Ni  Ni84  1  0.49002550  0.05189577  0.78219460  1.0
  Ni  Ni85  1  0.49002550  0.38522910  0.78219460  1.0
  Ni  Ni86  1  0.49002550  0.71856243  0.78219460  1.0
  Ni  Ni87  1  0.82335883  0.05189577  0.78219460  1.0
  Ni  Ni88  1  0.82335883  0.38522910  0.78219460  1.0
  Ni  Ni89  1  0.82335883  0.71856243  0.78219460  1.0
  Ni  Ni90  1  0.00997450  0.06785497  0.78817930  1.0
  Ni  Ni91  1  0.00997450  0.40118830  0.78817930  1.0
  Ni  Ni92  1  0.00997450  0.73452163  0.78817930  1.0
  Ni  Ni93  1  0.34330783  0.06785497  0.78817930  1.0
  Ni  Ni94  1  0.34330783  0.40118830  0.78817930  1.0
  Ni  Ni95  1  0.34330783  0.73452163  0.78817930  1.0
  Ni  Ni96  1  0.67664117  0.06785497  0.78817930  1.0
  Ni  Ni97  1  0.67664117  0.40118830  0.78817930  1.0
  Ni  Ni98  1  0.67664117  0.73452163  0.78817930  1.0
  Ni  Ni99  1  0.17664117  0.26785497  0.73817930  1.0
  Ni  Ni100  1  0.17664117  0.60118830  0.73817930  1.0
  Ni  Ni101  1  0.17664117  0.93452163  0.73817930  1.0
  Ni  Ni102  1  0.50997450  0.26785497  0.73817930  1.0
  Ni  Ni103  1  0.50997450  0.60118830  0.73817930  1.0
  Ni  Ni104  1  0.50997450  0.93452163  0.73817930  1.0
  Ni  Ni105  1  0.84330783  0.26785497  0.73817930  1.0
  Ni  Ni106  1  0.84330783  0.60118830  0.73817930  1.0
  Ni  Ni107  1  0.84330783  0.93452163  0.73817930  1.0
  Ni  Ni108  1  0.32335883  0.31856243  0.63219460  1.0
  Ni  Ni109  1  0.32335883  0.65189577  0.63219460  1.0
  Ni  Ni110  1  0.32335883  0.98522910  0.63219460  1.0
  Ni  Ni111  1  0.65669217  0.31856243  0.63219460  1.0
  Ni  Ni112  1  0.65669217  0.65189577  0.63219460  1.0
  Ni  Ni113  1  0.65669217  0.98522910  0.63219460  1.0
  Ni  Ni114  1  0.99002550  0.31856243  0.63219460  1.0
  Ni  Ni115  1  0.99002550  0.65189577  0.63219460  1.0
  Ni  Ni116  1  0.99002550  0.98522910  0.63219460  1.0
  Ni  Ni117  1  0.15669217  0.11856243  0.68219460  1.0
  Ni  Ni118  1  0.15669217  0.45189577  0.68219460  1.0
  Ni  Ni119  1  0.15669217  0.78522910  0.68219460  1.0
  Ni  Ni120  1  0.49002550  0.11856243  0.68219460  1.0
  Ni  Ni121  1  0.49002550  0.45189577  0.68219460  1.0
  Ni  Ni122  1  0.49002550  0.78522910  0.68219460  1.0
  Ni  Ni123  1  0.82335883  0.11856243  0.68219460  1.0
  Ni  Ni124  1  0.82335883  0.45189577  0.68219460  1.0
  Ni  Ni125  1  0.82335883  0.78522910  0.68219460  1.0
  Ni  Ni126  1  0.00997450  0.13452163  0.68817930  1.0
  Ni  Ni127  1  0.00997450  0.46785497  0.68817930  1.0
  Ni  Ni128  1  0.00997450  0.80118830  0.68817930  1.0
  Ni  Ni129  1  0.34330783  0.13452163  0.68817930  1.0
  Ni  Ni130  1  0.34330783  0.46785497  0.68817930  1.0
  Ni  Ni131  1  0.34330783  0.80118830  0.68817930  1.0
  Ni  Ni132  1  0.67664117  0.13452163  0.68817930  1.0
  Ni  Ni133  1  0.67664117  0.46785497  0.68817930  1.0
  Ni  Ni134  1  0.67664117  0.80118830  0.68817930  1.0
  Ni  Ni135  1  0.17664117  0.00118830  0.63817930  1.0
  Ni  Ni136  1  0.17664117  0.33452163  0.63817930  1.0
  Ni  Ni137  1  0.17664117  0.66785497  0.63817930  1.0
  Ni  Ni138  1  0.50997450  0.00118830  0.63817930  1.0
  Ni  Ni139  1  0.50997450  0.33452163  0.63817930  1.0
  Ni  Ni140  1  0.50997450  0.66785497  0.63817930  1.0
  Ni  Ni141  1  0.84330783  0.00118830  0.63817930  1.0
  Ni  Ni142  1  0.84330783  0.33452163  0.63817930  1.0
  Ni  Ni143  1  0.84330783  0.66785497  0.63817930  1.0
  Ti  Ti144  1  0.07788750  0.22218537  0.90855320  1.0
  Ti  Ti145  1  0.07788750  0.55551870  0.90855320  1.0
  Ti  Ti146  1  0.07788750  0.88885203  0.90855320  1.0
  Ti  Ti147  1  0.41122083  0.22218537  0.90855320  1.0
  Ti  Ti148  1  0.41122083  0.55551870  0.90855320  1.0
  Ti  Ti149  1  0.41122083  0.88885203  0.90855320  1.0
  Ti  Ti150  1  0.74455417  0.22218537  0.90855320  1.0
  Ti  Ti151  1  0.74455417  0.55551870  0.90855320  1.0
  Ti  Ti152  1  0.74455417  0.88885203  0.90855320  1.0
  Ti  Ti153  1  0.24455417  0.02218537  0.95855320  1.0
  Ti  Ti154  1  0.24455417  0.35551870  0.95855320  1.0
  Ti  Ti155  1  0.24455417  0.68885203  0.95855320  1.0
  Ti  Ti156  1  0.57788750  0.02218537  0.95855320  1.0
  Ti  Ti157  1  0.57788750  0.35551870  0.95855320  1.0
  Ti  Ti158  1  0.57788750  0.68885203  0.95855320  1.0
  Ti  Ti159  1  0.91122083  0.02218537  0.95855320  1.0
  Ti  Ti160  1  0.91122083  0.35551870  0.95855320  1.0
  Ti  Ti161  1  0.91122083  0.68885203  0.95855320  1.0
  Ti  Ti162  1  0.25544583  0.23089870  0.91182070  1.0
  Ti  Ti163  1  0.25544583  0.56423203  0.91182070  1.0
  Ti  Ti164  1  0.25544583  0.89756537  0.91182070  1.0
  Ti  Ti165  1  0.58877917  0.23089870  0.91182070  1.0
  Ti  Ti166  1  0.58877917  0.56423203  0.91182070  1.0
  Ti  Ti167  1  0.58877917  0.89756537  0.91182070  1.0
  Ti  Ti168  1  0.92211250  0.23089870  0.91182070  1.0
  Ti  Ti169  1  0.92211250  0.56423203  0.91182070  1.0
  Ti  Ti170  1  0.92211250  0.89756537  0.91182070  1.0
  Ti  Ti171  1  0.08877917  0.03089870  0.96182070  1.0
  Ti  Ti172  1  0.08877917  0.36423203  0.96182070  1.0
  Ti  Ti173  1  0.08877917  0.69756537  0.96182070  1.0
  Ti  Ti174  1  0.42211250  0.03089870  0.96182070  1.0
  Ti  Ti175  1  0.42211250  0.36423203  0.96182070  1.0
  Ti  Ti176  1  0.42211250  0.69756537  0.96182070  1.0
  Ti  Ti177  1  0.75544583  0.03089870  0.96182070  1.0
  Ti  Ti178  1  0.75544583  0.36423203  0.96182070  1.0
  Ti  Ti179  1  0.75544583  0.69756537  0.96182070  1.0
  Ti  Ti180  1  0.07788750  0.28885203  0.80855320  1.0
  Ti  Ti181  1  0.07788750  0.62218537  0.80855320  1.0
  Ti  Ti182  1  0.07788750  0.95551870  0.80855320  1.0
  Ti  Ti183  1  0.41122083  0.28885203  0.80855320  1.0
  Ti  Ti184  1  0.41122083  0.62218537  0.80855320  1.0
  Ti  Ti185  1  0.41122083  0.95551870  0.80855320  1.0
  Ti  Ti186  1  0.74455417  0.28885203  0.80855320  1.0
  Ti  Ti187  1  0.74455417  0.62218537  0.80855320  1.0
  Ti  Ti188  1  0.74455417  0.95551870  0.80855320  1.0
  Ti  Ti189  1  0.24455417  0.08885203  0.85855320  1.0
  Ti  Ti190  1  0.24455417  0.42218537  0.85855320  1.0
  Ti  Ti191  1  0.24455417  0.75551870  0.85855320  1.0
  Ti  Ti192  1  0.57788750  0.08885203  0.85855320  1.0
  Ti  Ti193  1  0.57788750  0.42218537  0.85855320  1.0
  Ti  Ti194  1  0.57788750  0.75551870  0.85855320  1.0
  Ti  Ti195  1  0.91122083  0.08885203  0.85855320  1.0
  Ti  Ti196  1  0.91122083  0.42218537  0.85855320  1.0
  Ti  Ti197  1  0.91122083  0.75551870  0.85855320  1.0
  Ti  Ti198  1  0.25544583  0.29756537  0.81182070  1.0
  Ti  Ti199  1  0.25544583  0.63089870  0.81182070  1.0
  Ti  Ti200  1  0.25544583  0.96423203  0.81182070  1.0
  Ti  Ti201  1  0.58877917  0.29756537  0.81182070  1.0
  Ti  Ti202  1  0.58877917  0.63089870  0.81182070  1.0
  Ti  Ti203  1  0.58877917  0.96423203  0.81182070  1.0
  Ti  Ti204  1  0.92211250  0.29756537  0.81182070  1.0
  Ti  Ti205  1  0.92211250  0.63089870  0.81182070  1.0
  Ti  Ti206  1  0.92211250  0.96423203  0.81182070  1.0
  Ti  Ti207  1  0.08877917  0.09756537  0.86182070  1.0
  Ti  Ti208  1  0.08877917  0.43089870  0.86182070  1.0
  Ti  Ti209  1  0.08877917  0.76423203  0.86182070  1.0
  Ti  Ti210  1  0.42211250  0.09756537  0.86182070  1.0
  Ti  Ti211  1  0.42211250  0.43089870  0.86182070  1.0
  Ti  Ti212  1  0.42211250  0.76423203  0.86182070  1.0
  Ti  Ti213  1  0.75544583  0.09756537  0.86182070  1.0
  Ti  Ti214  1  0.75544583  0.43089870  0.86182070  1.0
  Ti  Ti215  1  0.75544583  0.76423203  0.86182070  1.0
  Ti  Ti216  1  0.07788750  0.02218537  0.70855320  1.0
  Ti  Ti217  1  0.07788750  0.35551870  0.70855320  1.0
  Ti  Ti218  1  0.07788750  0.68885203  0.70855320  1.0
  Ti  Ti219  1  0.41122083  0.02218537  0.70855320  1.0
  Ti  Ti220  1  0.41122083  0.35551870  0.70855320  1.0
  Ti  Ti221  1  0.41122083  0.68885203  0.70855320  1.0
  Ti  Ti222  1  0.74455417  0.02218537  0.70855320  1.0
  Ti  Ti223  1  0.74455417  0.35551870  0.70855320  1.0
  Ti  Ti224  1  0.74455417  0.68885203  0.70855320  1.0
  Ti  Ti225  1  0.24455417  0.15551870  0.75855320  1.0
  Ti  Ti226  1  0.24455417  0.48885203  0.75855320  1.0
  Ti  Ti227  1  0.24455417  0.82218537  0.75855320  1.0
  Ti  Ti228  1  0.57788750  0.15551870  0.75855320  1.0
  Ti  Ti229  1  0.57788750  0.48885203  0.75855320  1.0
  Ti  Ti230  1  0.57788750  0.82218537  0.75855320  1.0
  Ti  Ti231  1  0.91122083  0.15551870  0.75855320  1.0
  Ti  Ti232  1  0.91122083  0.48885203  0.75855320  1.0
  Ti  Ti233  1  0.91122083  0.82218537  0.75855320  1.0
  Ti  Ti234  1  0.25544583  0.03089870  0.71182070  1.0
  Ti  Ti235  1  0.25544583  0.36423203  0.71182070  1.0
  Ti  Ti236  1  0.25544583  0.69756537  0.71182070  1.0
  Ti  Ti237  1  0.58877917  0.03089870  0.71182070  1.0
  Ti  Ti238  1  0.58877917  0.36423203  0.71182070  1.0
  Ti  Ti239  1  0.58877917  0.69756537  0.71182070  1.0
  Ti  Ti240  1  0.92211250  0.03089870  0.71182070  1.0
  Ti  Ti241  1  0.92211250  0.36423203  0.71182070  1.0
  Ti  Ti242  1  0.92211250  0.69756537  0.71182070  1.0
  Ti  Ti243  1  0.08877917  0.16423203  0.76182070  1.0
  Ti  Ti244  1  0.08877917  0.49756537  0.76182070  1.0
  Ti  Ti245  1  0.08877917  0.83089870  0.76182070  1.0
  Ti  Ti246  1  0.42211250  0.16423203  0.76182070  1.0
  Ti  Ti247  1  0.42211250  0.49756537  0.76182070  1.0
  Ti  Ti248  1  0.42211250  0.83089870  0.76182070  1.0
  Ti  Ti249  1  0.75544583  0.16423203  0.76182070  1.0
  Ti  Ti250  1  0.75544583  0.49756537  0.76182070  1.0
  Ti  Ti251  1  0.75544583  0.83089870  0.76182070  1.0
  Ti  Ti252  1  0.07788750  0.08885203  0.60855320  1.0
  Ti  Ti253  1  0.07788750  0.42218537  0.60855320  1.0
  Ti  Ti254  1  0.07788750  0.75551870  0.60855320  1.0
  Ti  Ti255  1  0.41122083  0.08885203  0.60855320  1.0
  Ti  Ti256  1  0.41122083  0.42218537  0.60855320  1.0
  Ti  Ti257  1  0.41122083  0.75551870  0.60855320  1.0
  Ti  Ti258  1  0.74455417  0.08885203  0.60855320  1.0
  Ti  Ti259  1  0.74455417  0.42218537  0.60855320  1.0
  Ti  Ti260  1  0.74455417  0.75551870  0.60855320  1.0
  Ti  Ti261  1  0.24455417  0.22218537  0.65855320  1.0
  Ti  Ti262  1  0.24455417  0.55551870  0.65855320  1.0
  Ti  Ti263  1  0.24455417  0.88885203  0.65855320  1.0
  Ti  Ti264  1  0.57788750  0.22218537  0.65855320  1.0
  Ti  Ti265  1  0.57788750  0.55551870  0.65855320  1.0
  Ti  Ti266  1  0.57788750  0.88885203  0.65855320  1.0
  Ti  Ti267  1  0.91122083  0.22218537  0.65855320  1.0
  Ti  Ti268  1  0.91122083  0.55551870  0.65855320  1.0
  Ti  Ti269  1  0.91122083  0.88885203  0.65855320  1.0
  Ti  Ti270  1  0.25544583  0.09756537  0.61182070  1.0
  Ti  Ti271  1  0.25544583  0.43089870  0.61182070  1.0
  Ti  Ti272  1  0.25544583  0.76423203  0.61182070  1.0
  Ti  Ti273  1  0.58877917  0.09756537  0.61182070  1.0
  Ti  Ti274  1  0.58877917  0.43089870  0.61182070  1.0
  Ti  Ti275  1  0.58877917  0.76423203  0.61182070  1.0
  Ti  Ti276  1  0.92211250  0.09756537  0.61182070  1.0
  Ti  Ti277  1  0.92211250  0.43089870  0.61182070  1.0
  Ti  Ti278  1  0.92211250  0.76423203  0.61182070  1.0
  Ti  Ti279  1  0.08877917  0.23089870  0.66182070  1.0
  Ti  Ti280  1  0.08877917  0.56423203  0.66182070  1.0
  Ti  Ti281  1  0.08877917  0.89756537  0.66182070  1.0
  Ti  Ti282  1  0.42211250  0.23089870  0.66182070  1.0
  Ti  Ti283  1  0.42211250  0.56423203  0.66182070  1.0
  Ti  Ti284  1  0.42211250  0.89756537  0.66182070  1.0
  Ti  Ti285  1  0.75544583  0.23089870  0.66182070  1.0
  Ti  Ti286  1  0.75544583  0.56423203  0.66182070  1.0
  Ti  Ti287  1  0.75544583  0.89756537  0.66182070  1.0
