# generated using pymatgen
data_TiNi
_symmetry_space_group_name_H-M   'P 1'
_cell_length_a   23.40259548
_cell_length_b   19.64848266
_cell_length_c   58.54981080
_cell_angle_alpha   69.88957919
_cell_angle_beta   30.00000000
_cell_angle_gamma   53.44944236
_symmetry_Int_Tables_number   1
_chemical_formula_structural   TiNi
_chemical_formula_sum   'Ti135 Ni135'
_cell_volume   9773.36844306
_cell_formula_units_Z   135
loop_
 _symmetry_equiv_pos_site_id
 _symmetry_equiv_pos_as_xyz
  1  'x, y, z'
loop_
 _atom_site_type_symbol
 _atom_site_label
 _atom_site_symmetry_multiplicity
 _atom_site_fract_x
 _atom_site_fract_y
 _atom_site_fract_z
 _atom_site_occupancy
  Ti  Ti0  1  0.09188433  0.24144900  0.04181592  1.0
  Ti  Ti1  1  0.09188433  0.57478233  0.04181592  1.0
  Ti  Ti2  1  0.09188433  0.90811567  0.04181592  1.0
  Ti  Ti3  1  0.42521767  0.24144900  0.04181592  1.0
  Ti  Ti4  1  0.42521767  0.57478233  0.04181592  1.0
  Ti  Ti5  1  0.42521767  0.90811567  0.04181592  1.0
  Ti  Ti6  1  0.75855100  0.24144900  0.04181592  1.0
  Ti  Ti7  1  0.75855100  0.57478233  0.04181592  1.0
  Ti  Ti8  1  0.75855100  0.90811567  0.04181592  1.0
  Ti  Ti9  1  0.06202911  0.04908200  0.07434662  1.0
  Ti  Ti10  1  0.06202911  0.38241533  0.07434662  1.0
  Ti  Ti11  1  0.06202911  0.71574867  0.07434662  1.0
  Ti  Ti12  1  0.39536244  0.04908200  0.07434662  1.0
  Ti  Ti13  1  0.39536244  0.38241533  0.07434662  1.0
  Ti  Ti14  1  0.39536244  0.71574867  0.07434662  1.0
  Ti  Ti15  1  0.72869578  0.04908200  0.07434662  1.0
  Ti  Ti16  1  0.72869578  0.38241533  0.07434662  1.0
  Ti  Ti17  1  0.72869578  0.71574867  0.07434662  1.0
  Ti  Ti18  1  0.17314022  0.04908200  0.07434662  1.0
  Ti  Ti19  1  0.17314022  0.38241533  0.07434662  1.0
  Ti  Ti20  1  0.17314022  0.71574867  0.07434662  1.0
  Ti  Ti21  1  0.50647356  0.04908200  0.07434662  1.0
  Ti  Ti22  1  0.50647356  0.38241533  0.07434662  1.0
  Ti  Ti23  1  0.50647356  0.71574867  0.07434662  1.0
  Ti  Ti24  1  0.83980689  0.04908200  0.07434662  1.0
  Ti  Ti25  1  0.83980689  0.38241533  0.07434662  1.0
  Ti  Ti26  1  0.83980689  0.71574867  0.07434662  1.0
  Ni  Ni27  1  0.26192200  0.07141133  0.00257646  1.0
  Ni  Ni28  1  0.26192200  0.40474467  0.00257646  1.0
  Ni  Ni29  1  0.26192200  0.73807800  0.00257646  1.0
  Ni  Ni30  1  0.59525533  0.07141133  0.00257646  1.0
  Ni  Ni31  1  0.59525533  0.40474467  0.00257646  1.0
  Ni  Ni32  1  0.59525533  0.73807800  0.00257646  1.0
  Ni  Ni33  1  0.92858867  0.07141133  0.00257646  1.0
  Ni  Ni34  1  0.92858867  0.40474467  0.00257646  1.0
  Ni  Ni35  1  0.92858867  0.73807800  0.00257646  1.0
  Ni  Ni36  1  0.00440122  0.21782100  0.03636331  1.0
  Ni  Ni37  1  0.00440122  0.55115433  0.03636331  1.0
  Ni  Ni38  1  0.00440122  0.88448767  0.03636331  1.0
  Ni  Ni39  1  0.33773456  0.21782100  0.03636331  1.0
  Ni  Ni40  1  0.33773456  0.55115433  0.03636331  1.0
  Ni  Ni41  1  0.33773456  0.88448767  0.03636331  1.0
  Ni  Ni42  1  0.67106789  0.21782100  0.03636331  1.0
  Ni  Ni43  1  0.67106789  0.55115433  0.03636331  1.0
  Ni  Ni44  1  0.67106789  0.88448767  0.03636331  1.0
  Ni  Ni45  1  0.22662344  0.21782100  0.03636331  1.0
  Ni  Ni46  1  0.22662344  0.55115433  0.03636331  1.0
  Ni  Ni47  1  0.22662344  0.88448767  0.03636331  1.0
  Ni  Ni48  1  0.55995678  0.21782100  0.03636331  1.0
  Ni  Ni49  1  0.55995678  0.55115433  0.03636331  1.0
  Ni  Ni50  1  0.55995678  0.88448767  0.03636331  1.0
  Ni  Ni51  1  0.89329011  0.21782100  0.03636331  1.0
  Ni  Ni52  1  0.89329011  0.55115433  0.03636331  1.0
  Ni  Ni53  1  0.89329011  0.88448767  0.03636331  1.0
  Ti  Ti54  1  0.09188433  0.24144900  0.11873900  1.0
  Ti  Ti55  1  0.09188433  0.57478233  0.11873900  1.0
  Ti  Ti56  1  0.09188433  0.90811567  0.11873900  1.0
  Ti  Ti57  1  0.42521767  0.24144900  0.11873900  1.0
  Ti  Ti58  1  0.42521767  0.57478233  0.11873900  1.0
  Ti  Ti59  1  0.42521767  0.90811567  0.11873900  1.0
  Ti  Ti60  1  0.75855100  0.24144900  0.11873900  1.0
  Ti  Ti61  1  0.75855100  0.57478233  0.11873900  1.0
  Ti  Ti62  1  0.75855100  0.90811567  0.11873900  1.0
  Ti  Ti63  1  0.06202911  0.04908200  0.15126969  1.0
  Ti  Ti64  1  0.06202911  0.38241533  0.15126969  1.0
  Ti  Ti65  1  0.06202911  0.71574867  0.15126969  1.0
  Ti  Ti66  1  0.39536244  0.04908200  0.15126969  1.0
  Ti  Ti67  1  0.39536244  0.38241533  0.15126969  1.0
  Ti  Ti68  1  0.39536244  0.71574867  0.15126969  1.0
  Ti  Ti69  1  0.72869578  0.04908200  0.15126969  1.0
  Ti  Ti70  1  0.72869578  0.38241533  0.15126969  1.0
  Ti  Ti71  1  0.72869578  0.71574867  0.15126969  1.0
  Ti  Ti72  1  0.17314022  0.04908200  0.15126969  1.0
  Ti  Ti73  1  0.17314022  0.38241533  0.15126969  1.0
  Ti  Ti74  1  0.17314022  0.71574867  0.15126969  1.0
  Ti  Ti75  1  0.50647356  0.04908200  0.15126969  1.0
  Ti  Ti76  1  0.50647356  0.38241533  0.15126969  1.0
  Ti  Ti77  1  0.50647356  0.71574867  0.15126969  1.0
  Ti  Ti78  1  0.83980689  0.04908200  0.15126969  1.0
  Ti  Ti79  1  0.83980689  0.38241533  0.15126969  1.0
  Ti  Ti80  1  0.83980689  0.71574867  0.15126969  1.0
  Ni  Ni81  1  0.26192200  0.07141133  0.07949954  1.0
  Ni  Ni82  1  0.26192200  0.40474467  0.07949954  1.0
  Ni  Ni83  1  0.26192200  0.73807800  0.07949954  1.0
  Ni  Ni84  1  0.59525533  0.07141133  0.07949954  1.0
  Ni  Ni85  1  0.59525533  0.40474467  0.07949954  1.0
  Ni  Ni86  1  0.59525533  0.73807800  0.07949954  1.0
  Ni  Ni87  1  0.92858867  0.07141133  0.07949954  1.0
  Ni  Ni88  1  0.92858867  0.40474467  0.07949954  1.0
  Ni  Ni89  1  0.92858867  0.73807800  0.07949954  1.0
  Ni  Ni90  1  0.00440122  0.21782100  0.11328638  1.0
  Ni  Ni91  1  0.00440122  0.55115433  0.11328638  1.0
  Ni  Ni92  1  0.00440122  0.88448767  0.11328638  1.0
  Ni  Ni93  1  0.33773456  0.21782100  0.11328638  1.0
  Ni  Ni94  1  0.33773456  0.55115433  0.11328638  1.0
  Ni  Ni95  1  0.33773456  0.88448767  0.11328638  1.0
  Ni  Ni96  1  0.67106789  0.21782100  0.11328638  1.0
  Ni  Ni97  1  0.67106789  0.55115433  0.11328638  1.0
  Ni  Ni98  1  0.67106789  0.88448767  0.11328638  1.0
  Ni  Ni99  1  0.22662344  0.21782100  0.11328638  1.0
  Ni  Ni100  1  0.22662344  0.55115433  0.11328638  1.0
  Ni  Ni101  1  0.22662344  0.88448767  0.11328638  1.0
  Ni  Ni102  1  0.55995678  0.21782100  0.11328638  1.0
  Ni  Ni103  1  0.55995678  0.55115433  0.11328638  1.0
  Ni  Ni104  1  0.55995678  0.88448767  0.11328638  1.0
  Ni  Ni105  1  0.89329011  0.21782100  0.11328638  1.0
  Ni  Ni106  1  0.89329011  0.55115433  0.11328638  1.0
  Ni  Ni107  1  0.89329011  0.88448767  0.11328638  1.0
  Ti  Ti108  1  0.09188433  0.24144900  0.19566208  1.0
  Ti  Ti109  1  0.09188433  0.57478233  0.19566208  1.0
  Ti  Ti110  1  0.09188433  0.90811567  0.19566208  1.0
  Ti  Ti111  1  0.42521767  0.24144900  0.19566208  1.0
  Ti  Ti112  1  0.42521767  0.57478233  0.19566208  1.0
  Ti  Ti113  1  0.42521767  0.90811567  0.19566208  1.0
  Ti  Ti114  1  0.75855100  0.24144900  0.19566208  1.0
  Ti  Ti115  1  0.75855100  0.57478233  0.19566208  1.0
  Ti  Ti116  1  0.75855100  0.90811567  0.19566208  1.0
  Ti  Ti117  1  0.06202911  0.04908200  0.22819277  1.0
  Ti  Ti118  1  0.06202911  0.38241533  0.22819277  1.0
  Ti  Ti119  1  0.06202911  0.71574867  0.22819277  1.0
  Ti  Ti120  1  0.39536244  0.04908200  0.22819277  1.0
  Ti  Ti121  1  0.39536244  0.38241533  0.22819277  1.0
  Ti  Ti122  1  0.39536244  0.71574867  0.22819277  1.0
  Ti  Ti123  1  0.72869578  0.04908200  0.22819277  1.0
  Ti  Ti124  1  0.72869578  0.38241533  0.22819277  1.0
  Ti  Ti125  1  0.72869578  0.71574867  0.22819277  1.0
  Ti  Ti126  1  0.17314022  0.04908200  0.22819277  1.0
  Ti  Ti127  1  0.17314022  0.38241533  0.22819277  1.0
  Ti  Ti128  1  0.17314022  0.71574867  0.22819277  1.0
  Ti  Ti129  1  0.50647356  0.04908200  0.22819277  1.0
  Ti  Ti130  1  0.50647356  0.38241533  0.22819277  1.0
  Ti  Ti131  1  0.50647356  0.71574867  0.22819277  1.0
  Ti  Ti132  1  0.83980689  0.04908200  0.22819277  1.0
  Ti  Ti133  1  0.83980689  0.38241533  0.22819277  1.0
  Ti  Ti134  1  0.83980689  0.71574867  0.22819277  1.0
  Ni  Ni135  1  0.26192200  0.07141133  0.15642262  1.0
  Ni  Ni136  1  0.26192200  0.40474467  0.15642262  1.0
  Ni  Ni137  1  0.26192200  0.73807800  0.15642262  1.0
  Ni  Ni138  1  0.59525533  0.07141133  0.15642262  1.0
  Ni  Ni139  1  0.59525533  0.40474467  0.15642262  1.0
  Ni  Ni140  1  0.59525533  0.73807800  0.15642262  1.0
  Ni  Ni141  1  0.92858867  0.07141133  0.15642262  1.0
  Ni  Ni142  1  0.92858867  0.40474467  0.15642262  1.0
  Ni  Ni143  1  0.92858867  0.73807800  0.15642262  1.0
  Ni  Ni144  1  0.00440122  0.21782100  0.19020946  1.0
  Ni  Ni145  1  0.00440122  0.55115433  0.19020946  1.0
  Ni  Ni146  1  0.00440122  0.88448767  0.19020946  1.0
  Ni  Ni147  1  0.33773456  0.21782100  0.19020946  1.0
  Ni  Ni148  1  0.33773456  0.55115433  0.19020946  1.0
  Ni  Ni149  1  0.33773456  0.88448767  0.19020946  1.0
  Ni  Ni150  1  0.67106789  0.21782100  0.19020946  1.0
  Ni  Ni151  1  0.67106789  0.55115433  0.19020946  1.0
  Ni  Ni152  1  0.67106789  0.88448767  0.19020946  1.0
  Ni  Ni153  1  0.22662344  0.21782100  0.19020946  1.0
  Ni  Ni154  1  0.22662344  0.55115433  0.19020946  1.0
  Ni  Ni155  1  0.22662344  0.88448767  0.19020946  1.0
  Ni  Ni156  1  0.55995678  0.21782100  0.19020946  1.0
  Ni  Ni157  1  0.55995678  0.55115433  0.19020946  1.0
  Ni  Ni158  1  0.55995678  0.88448767  0.19020946  1.0
  Ni  Ni159  1  0.89329011  0.21782100  0.19020946  1.0
  Ni  Ni160  1  0.89329011  0.55115433  0.19020946  1.0
  Ni  Ni161  1  0.89329011  0.88448767  0.19020946  1.0
  Ti  Ti162  1  0.09188433  0.24144900  0.27258515  1.0
  Ti  Ti163  1  0.09188433  0.57478233  0.27258515  1.0
  Ti  Ti164  1  0.09188433  0.90811567  0.27258515  1.0
  Ti  Ti165  1  0.42521767  0.24144900  0.27258515  1.0
  Ti  Ti166  1  0.42521767  0.57478233  0.27258515  1.0
  Ti  Ti167  1  0.42521767  0.90811567  0.27258515  1.0
  Ti  Ti168  1  0.75855100  0.24144900  0.27258515  1.0
  Ti  Ti169  1  0.75855100  0.57478233  0.27258515  1.0
  Ti  Ti170  1  0.75855100  0.90811567  0.27258515  1.0
  Ti  Ti171  1  0.06202911  0.04908200  0.30511585  1.0
  Ti  Ti172  1  0.06202911  0.38241533  0.30511585  1.0
  Ti  Ti173  1  0.06202911  0.71574867  0.30511585  1.0
  Ti  Ti174  1  0.39536244  0.04908200  0.30511585  1.0
  Ti  Ti175  1  0.39536244  0.38241533  0.30511585  1.0
  Ti  Ti176  1  0.39536244  0.71574867  0.30511585  1.0
  Ti  Ti177  1  0.72869578  0.04908200  0.30511585  1.0
  Ti  Ti178  1  0.72869578  0.38241533  0.30511585  1.0
  Ti  Ti179  1  0.72869578  0.71574867  0.30511585  1.0
  Ti  Ti180  1  0.17314022  0.04908200  0.30511585  1.0
  Ti  Ti181  1  0.17314022  0.38241533  0.30511585  1.0
  Ti  Ti182  1  0.17314022  0.71574867  0.30511585  1.0
  Ti  Ti183  1  0.50647356  0.04908200  0.30511585  1.0
  Ti  Ti184  1  0.50647356  0.38241533  0.30511585  1.0
  Ti  Ti185  1  0.50647356  0.71574867  0.30511585  1.0
  Ti  Ti186  1  0.83980689  0.04908200  0.30511585  1.0
  Ti  Ti187  1  0.83980689  0.38241533  0.30511585  1.0
  Ti  Ti188  1  0.83980689  0.71574867  0.30511585  1.0
  Ni  Ni189  1  0.26192200  0.07141133  0.23334569  1.0
  Ni  Ni190  1  0.26192200  0.40474467  0.23334569  1.0
  Ni  Ni191  1  0.26192200  0.73807800  0.23334569  1.0
  Ni  Ni192  1  0.59525533  0.07141133  0.23334569  1.0
  Ni  Ni193  1  0.59525533  0.40474467  0.23334569  1.0
  Ni  Ni194  1  0.59525533  0.73807800  0.23334569  1.0
  Ni  Ni195  1  0.92858867  0.07141133  0.23334569  1.0
  Ni  Ni196  1  0.92858867  0.40474467  0.23334569  1.0
  Ni  Ni197  1  0.92858867  0.73807800  0.23334569  1.0
  Ni  Ni198  1  0.00440122  0.21782100  0.26713254  1.0
  Ni  Ni199  1  0.00440122  0.55115433  0.26713254  1.0
  Ni  Ni200  1  0.00440122  0.88448767  0.26713254  1.0
  Ni  Ni201  1  0.33773456  0.21782100  0.26713254  1.0
  Ni  Ni202  1  0.33773456  0.55115433  0.26713254  1.0
  Ni  Ni203  1  0.33773456  0.88448767  0.26713254  1.0
  Ni  Ni204  1  0.67106789  0.21782100  0.26713254  1.0
  Ni  Ni205  1  0.67106789  0.55115433  0.26713254  1.0
  Ni  Ni206  1  0.67106789  0.88448767  0.26713254  1.0
  Ni  Ni207  1  0.22662344  0.21782100  0.26713254  1.0
  Ni  Ni208  1  0.22662344  0.55115433  0.26713254  1.0
  Ni  Ni209  1  0.22662344  0.88448767  0.26713254  1.0
  Ni  Ni210  1  0.55995678  0.21782100  0.26713254  1.0
  Ni  Ni211  1  0.55995678  0.55115433  0.26713254  1.0
  Ni  Ni212  1  0.55995678  0.88448767  0.26713254  1.0
  Ni  Ni213  1  0.89329011  0.21782100  0.26713254  1.0
  Ni  Ni214  1  0.89329011  0.55115433  0.26713254  1.0
  Ni  Ni215  1  0.89329011  0.88448767  0.26713254  1.0
  Ti  Ti216  1  0.09188433  0.24144900  0.34950823  1.0
  Ti  Ti217  1  0.09188433  0.57478233  0.34950823  1.0
  Ti  Ti218  1  0.09188433  0.90811567  0.34950823  1.0
  Ti  Ti219  1  0.42521767  0.24144900  0.34950823  1.0
  Ti  Ti220  1  0.42521767  0.57478233  0.34950823  1.0
  Ti  Ti221  1  0.42521767  0.90811567  0.34950823  1.0
  Ti  Ti222  1  0.75855100  0.24144900  0.34950823  1.0
  Ti  Ti223  1  0.75855100  0.57478233  0.34950823  1.0
  Ti  Ti224  1  0.75855100  0.90811567  0.34950823  1.0
  Ti  Ti225  1  0.06202911  0.04908200  0.38203892  1.0
  Ti  Ti226  1  0.06202911  0.38241533  0.38203892  1.0
  Ti  Ti227  1  0.06202911  0.71574867  0.38203892  1.0
  Ti  Ti228  1  0.39536244  0.04908200  0.38203892  1.0
  Ti  Ti229  1  0.39536244  0.38241533  0.38203892  1.0
  Ti  Ti230  1  0.39536244  0.71574867  0.38203892  1.0
  Ti  Ti231  1  0.72869578  0.04908200  0.38203892  1.0
  Ti  Ti232  1  0.72869578  0.38241533  0.38203892  1.0
  Ti  Ti233  1  0.72869578  0.71574867  0.38203892  1.0
  Ti  Ti234  1  0.17314022  0.04908200  0.38203892  1.0
  Ti  Ti235  1  0.17314022  0.38241533  0.38203892  1.0
  Ti  Ti236  1  0.17314022  0.71574867  0.38203892  1.0
  Ti  Ti237  1  0.50647356  0.04908200  0.38203892  1.0
  Ti  Ti238  1  0.50647356  0.38241533  0.38203892  1.0
  Ti  Ti239  1  0.50647356  0.71574867  0.38203892  1.0
  Ti  Ti240  1  0.83980689  0.04908200  0.38203892  1.0
  Ti  Ti241  1  0.83980689  0.38241533  0.38203892  1.0
  Ti  Ti242  1  0.83980689  0.71574867  0.38203892  1.0
  Ni  Ni243  1  0.26192200  0.07141133  0.31026877  1.0
  Ni  Ni244  1  0.26192200  0.40474467  0.31026877  1.0
  Ni  Ni245  1  0.26192200  0.73807800  0.31026877  1.0
  Ni  Ni246  1  0.59525533  0.07141133  0.31026877  1.0
  Ni  Ni247  1  0.59525533  0.40474467  0.31026877  1.0
  Ni  Ni248  1  0.59525533  0.73807800  0.31026877  1.0
  Ni  Ni249  1  0.92858867  0.07141133  0.31026877  1.0
  Ni  Ni250  1  0.92858867  0.40474467  0.31026877  1.0
  Ni  Ni251  1  0.92858867  0.73807800  0.31026877  1.0
  Ni  Ni252  1  0.00440122  0.21782100  0.34405562  1.0
  Ni  Ni253  1  0.00440122  0.55115433  0.34405562  1.0
  Ni  Ni254  1  0.00440122  0.88448767  0.34405562  1.0
  Ni  Ni255  1  0.33773456  0.21782100  0.34405562  1.0
  Ni  Ni256  1  0.33773456  0.55115433  0.34405562  1.0
  Ni  Ni257  1  0.33773456  0.88448767  0.34405562  1.0
  Ni  Ni258  1  0.67106789  0.21782100  0.34405562  1.0
  Ni  Ni259  1  0.67106789  0.55115433  0.34405562  1.0
  Ni  Ni260  1  0.67106789  0.88448767  0.34405562  1.0
  Ni  Ni261  1  0.22662344  0.21782100  0.34405562  1.0
  Ni  Ni262  1  0.22662344  0.55115433  0.34405562  1.0
  Ni  Ni263  1  0.22662344  0.88448767  0.34405562  1.0
  Ni  Ni264  1  0.55995678  0.21782100  0.34405562  1.0
  Ni  Ni265  1  0.55995678  0.55115433  0.34405562  1.0
  Ni  Ni266  1  0.55995678  0.88448767  0.34405562  1.0
  Ni  Ni267  1  0.89329011  0.21782100  0.34405562  1.0
  Ni  Ni268  1  0.89329011  0.55115433  0.34405562  1.0
  Ni  Ni269  1  0.89329011  0.88448767  0.34405562  1.0
