# generated using pymatgen
data_TiNi
_symmetry_space_group_name_H-M   'P 1'
_cell_length_a   28.18772402
_cell_length_b   19.04767488
_cell_length_c   76.26900200
_cell_angle_alpha   50.78530535
_cell_angle_beta   90.00000000
_cell_angle_gamma   42.27492290
_symmetry_Int_Tables_number   1
_chemical_formula_structural   TiNi
_chemical_formula_sum   'Ti144 Ni144'
_cell_volume   9409.31760869
_cell_formula_units_Z   144
loop_
 _symmetry_equiv_pos_site_id
 _symmetry_equiv_pos_as_xyz
  1  'x, y, z'
loop_
 _atom_site_type_symbol
 _atom_site_label
 _atom_site_symmetry_multiplicity
 _atom_site_fract_x
 _atom_site_fract_y
 _atom_site_fract_z
 _atom_site_occupancy
  Ti  Ti0  1  0.21424900  0.00000000  0.01315789  1.0
  Ti  Ti1  1  0.21424900  0.33333333  0.01315789  1.0
  Ti  Ti2  1  0.21424900  0.66666667  0.01315789  1.0
  Ti  Ti3  1  0.54758233  0.00000000  0.01315789  1.0
  Ti  Ti4  1  0.54758233  0.33333333  0.01315789  1.0
  Ti  Ti5  1  0.54758233  0.66666667  0.01315789  1.0
  Ti  Ti6  1  0.88091567  0.00000000  0.01315789  1.0
  Ti  Ti7  1  0.88091567  0.33333333  0.01315789  1.0
  Ti  Ti8  1  0.88091567  0.66666667  0.01315789  1.0
  Ti  Ti9  1  0.11908433  0.00000000  0.03947368  1.0
  Ti  Ti10  1  0.11908433  0.33333333  0.03947368  1.0
  Ti  Ti11  1  0.11908433  0.66666667  0.03947368  1.0
  Ti  Ti12  1  0.45241767  0.00000000  0.03947368  1.0
  Ti  Ti13  1  0.45241767  0.33333333  0.03947368  1.0
  Ti  Ti14  1  0.45241767  0.66666667  0.03947368  1.0
  Ti  Ti15  1  0.78575100  0.00000000  0.03947368  1.0
  Ti  Ti16  1  0.78575100  0.33333333  0.03947368  1.0
  Ti  Ti17  1  0.78575100  0.66666667  0.03947368  1.0
  Ni  Ni18  1  0.30498300  0.00000000  0.01315789  1.0
  Ni  Ni19  1  0.30498300  0.33333333  0.01315789  1.0
  Ni  Ni20  1  0.30498300  0.66666667  0.01315789  1.0
  Ni  Ni21  1  0.63831633  0.00000000  0.01315789  1.0
  Ni  Ni22  1  0.63831633  0.33333333  0.01315789  1.0
  Ni  Ni23  1  0.63831633  0.66666667  0.01315789  1.0
  Ni  Ni24  1  0.97164967  0.00000000  0.01315789  1.0
  Ni  Ni25  1  0.97164967  0.33333333  0.01315789  1.0
  Ni  Ni26  1  0.97164967  0.66666667  0.01315789  1.0
  Ni  Ni27  1  0.02835033  0.33333333  0.03947368  1.0
  Ni  Ni28  1  0.02835033  0.66666667  0.03947368  1.0
  Ni  Ni29  1  0.02835033  1.00000000  0.03947368  1.0
  Ni  Ni30  1  0.36168367  0.33333333  0.03947368  1.0
  Ni  Ni31  1  0.36168367  0.66666667  0.03947368  1.0
  Ni  Ni32  1  0.36168367  1.00000000  0.03947368  1.0
  Ni  Ni33  1  0.69501700  0.33333333  0.03947368  1.0
  Ni  Ni34  1  0.69501700  0.66666667  0.03947368  1.0
  Ni  Ni35  1  0.69501700  1.00000000  0.03947368  1.0
  Ti  Ti36  1  0.21424900  0.00000000  0.06578947  1.0
  Ti  Ti37  1  0.21424900  0.33333333  0.06578947  1.0
  Ti  Ti38  1  0.21424900  0.66666667  0.06578947  1.0
  Ti  Ti39  1  0.54758233  0.00000000  0.06578947  1.0
  Ti  Ti40  1  0.54758233  0.33333333  0.06578947  1.0
  Ti  Ti41  1  0.54758233  0.66666667  0.06578947  1.0
  Ti  Ti42  1  0.88091567  0.00000000  0.06578947  1.0
  Ti  Ti43  1  0.88091567  0.33333333  0.06578947  1.0
  Ti  Ti44  1  0.88091567  0.66666667  0.06578947  1.0
  Ti  Ti45  1  0.11908433  0.00000000  0.09210526  1.0
  Ti  Ti46  1  0.11908433  0.33333333  0.09210526  1.0
  Ti  Ti47  1  0.11908433  0.66666667  0.09210526  1.0
  Ti  Ti48  1  0.45241767  0.00000000  0.09210526  1.0
  Ti  Ti49  1  0.45241767  0.33333333  0.09210526  1.0
  Ti  Ti50  1  0.45241767  0.66666667  0.09210526  1.0
  Ti  Ti51  1  0.78575100  0.00000000  0.09210526  1.0
  Ti  Ti52  1  0.78575100  0.33333333  0.09210526  1.0
  Ti  Ti53  1  0.78575100  0.66666667  0.09210526  1.0
  Ni  Ni54  1  0.30498300  0.00000000  0.06578947  1.0
  Ni  Ni55  1  0.30498300  0.33333333  0.06578947  1.0
  Ni  Ni56  1  0.30498300  0.66666667  0.06578947  1.0
  Ni  Ni57  1  0.63831633  0.00000000  0.06578947  1.0
  Ni  Ni58  1  0.63831633  0.33333333  0.06578947  1.0
  Ni  Ni59  1  0.63831633  0.66666667  0.06578947  1.0
  Ni  Ni60  1  0.97164967  0.00000000  0.06578947  1.0
  Ni  Ni61  1  0.97164967  0.33333333  0.06578947  1.0
  Ni  Ni62  1  0.97164967  0.66666667  0.06578947  1.0
  Ni  Ni63  1  0.02835033  0.33333333  0.09210526  1.0
  Ni  Ni64  1  0.02835033  0.66666667  0.09210526  1.0
  Ni  Ni65  1  0.02835033  1.00000000  0.09210526  1.0
  Ni  Ni66  1  0.36168367  0.33333333  0.09210526  1.0
  Ni  Ni67  1  0.36168367  0.66666667  0.09210526  1.0
  Ni  Ni68  1  0.36168367  1.00000000  0.09210526  1.0
  Ni  Ni69  1  0.69501700  0.33333333  0.09210526  1.0
  Ni  Ni70  1  0.69501700  0.66666667  0.09210526  1.0
  Ni  Ni71  1  0.69501700  1.00000000  0.09210526  1.0
  Ti  Ti72  1  0.21424900  0.00000000  0.11842105  1.0
  Ti  Ti73  1  0.21424900  0.33333333  0.11842105  1.0
  Ti  Ti74  1  0.21424900  0.66666667  0.11842105  1.0
  Ti  Ti75  1  0.54758233  0.00000000  0.11842105  1.0
  Ti  Ti76  1  0.54758233  0.33333333  0.11842105  1.0
  Ti  Ti77  1  0.54758233  0.66666667  0.11842105  1.0
  Ti  Ti78  1  0.88091567  0.00000000  0.11842105  1.0
  Ti  Ti79  1  0.88091567  0.33333333  0.11842105  1.0
  Ti  Ti80  1  0.88091567  0.66666667  0.11842105  1.0
  Ti  Ti81  1  0.11908433  0.00000000  0.14473684  1.0
  Ti  Ti82  1  0.11908433  0.33333333  0.14473684  1.0
  Ti  Ti83  1  0.11908433  0.66666667  0.14473684  1.0
  Ti  Ti84  1  0.45241767  0.00000000  0.14473684  1.0
  Ti  Ti85  1  0.45241767  0.33333333  0.14473684  1.0
  Ti  Ti86  1  0.45241767  0.66666667  0.14473684  1.0
  Ti  Ti87  1  0.78575100  0.00000000  0.14473684  1.0
  Ti  Ti88  1  0.78575100  0.33333333  0.14473684  1.0
  Ti  Ti89  1  0.78575100  0.66666667  0.14473684  1.0
  Ni  Ni90  1  0.30498300  0.00000000  0.11842105  1.0
  Ni  Ni91  1  0.30498300  0.33333333  0.11842105  1.0
  Ni  Ni92  1  0.30498300  0.66666667  0.11842105  1.0
  Ni  Ni93  1  0.63831633  0.00000000  0.11842105  1.0
  Ni  Ni94  1  0.63831633  0.33333333  0.11842105  1.0
  Ni  Ni95  1  0.63831633  0.66666667  0.11842105  1.0
  Ni  Ni96  1  0.97164967  0.00000000  0.11842105  1.0
  Ni  Ni97  1  0.97164967  0.33333333  0.11842105  1.0
  Ni  Ni98  1  0.97164967  0.66666667  0.11842105  1.0
  Ni  Ni99  1  0.02835033  0.33333333  0.14473684  1.0
  Ni  Ni100  1  0.02835033  0.66666667  0.14473684  1.0
  Ni  Ni101  1  0.02835033  1.00000000  0.14473684  1.0
  Ni  Ni102  1  0.36168367  0.33333333  0.14473684  1.0
  Ni  Ni103  1  0.36168367  0.66666667  0.14473684  1.0
  Ni  Ni104  1  0.36168367  1.00000000  0.14473684  1.0
  Ni  Ni105  1  0.69501700  0.33333333  0.14473684  1.0
  Ni  Ni106  1  0.69501700  0.66666667  0.14473684  1.0
  Ni  Ni107  1  0.69501700  1.00000000  0.14473684  1.0
  Ti  Ti108  1  0.21424900  0.00000000  0.17105263  1.0
  Ti  Ti109  1  0.21424900  0.33333333  0.17105263  1.0
  Ti  Ti110  1  0.21424900  0.66666667  0.17105263  1.0
  Ti  Ti111  1  0.54758233  0.00000000  0.17105263  1.0
  Ti  Ti112  1  0.54758233  0.33333333  0.17105263  1.0
  Ti  Ti113  1  0.54758233  0.66666667  0.17105263  1.0
  Ti  Ti114  1  0.88091567  0.00000000  0.17105263  1.0
  Ti  Ti115  1  0.88091567  0.33333333  0.17105263  1.0
  Ti  Ti116  1  0.88091567  0.66666667  0.17105263  1.0
  Ti  Ti117  1  0.11908433  0.00000000  0.19736842  1.0
  Ti  Ti118  1  0.11908433  0.33333333  0.19736842  1.0
  Ti  Ti119  1  0.11908433  0.66666667  0.19736842  1.0
  Ti  Ti120  1  0.45241767  0.00000000  0.19736842  1.0
  Ti  Ti121  1  0.45241767  0.33333333  0.19736842  1.0
  Ti  Ti122  1  0.45241767  0.66666667  0.19736842  1.0
  Ti  Ti123  1  0.78575100  0.00000000  0.19736842  1.0
  Ti  Ti124  1  0.78575100  0.33333333  0.19736842  1.0
  Ti  Ti125  1  0.78575100  0.66666667  0.19736842  1.0
  Ni  Ni126  1  0.30498300  0.00000000  0.17105263  1.0
  Ni  Ni127  1  0.30498300  0.33333333  0.17105263  1.0
  Ni  Ni128  1  0.30498300  0.66666667  0.17105263  1.0
  Ni  Ni129  1  0.63831633  0.00000000  0.17105263  1.0
  Ni  Ni130  1  0.63831633  0.33333333  0.17105263  1.0
  Ni  Ni131  1  0.63831633  0.66666667  0.17105263  1.0
  Ni  Ni132  1  0.97164967  0.00000000  0.17105263  1.0
  Ni  Ni133  1  0.97164967  0.33333333  0.17105263  1.0
  Ni  Ni134  1  0.97164967  0.66666667  0.17105263  1.0
  Ni  Ni135  1  0.02835033  0.33333333  0.19736842  1.0
  Ni  Ni136  1  0.02835033  0.66666667  0.19736842  1.0
  Ni  Ni137  1  0.02835033  1.00000000  0.19736842  1.0
  Ni  Ni138  1  0.36168367  0.33333333  0.19736842  1.0
  Ni  Ni139  1  0.36168367  0.66666667  0.19736842  1.0
  Ni  Ni140  1  0.36168367  1.00000000  0.19736842  1.0
  Ni  Ni141  1  0.69501700  0.33333333  0.19736842  1.0
  Ni  Ni142  1  0.69501700  0.66666667  0.19736842  1.0
  Ni  Ni143  1  0.69501700  1.00000000  0.19736842  1.0
  Ti  Ti144  1  0.21424900  0.00000000  0.22368421  1.0
  Ti  Ti145  1  0.21424900  0.33333333  0.22368421  1.0
  Ti  Ti146  1  0.21424900  0.66666667  0.22368421  1.0
  Ti  Ti147  1  0.54758233  0.00000000  0.22368421  1.0
  Ti  Ti148  1  0.54758233  0.33333333  0.22368421  1.0
  Ti  Ti149  1  0.54758233  0.66666667  0.22368421  1.0
  Ti  Ti150  1  0.88091567  0.00000000  0.22368421  1.0
  Ti  Ti151  1  0.88091567  0.33333333  0.22368421  1.0
  Ti  Ti152  1  0.88091567  0.66666667  0.22368421  1.0
  Ti  Ti153  1  0.11908433  0.00000000  0.25000000  1.0
  Ti  Ti154  1  0.11908433  0.33333333  0.25000000  1.0
  Ti  Ti155  1  0.11908433  0.66666667  0.25000000  1.0
  Ti  Ti156  1  0.45241767  0.00000000  0.25000000  1.0
  Ti  Ti157  1  0.45241767  0.33333333  0.25000000  1.0
  Ti  Ti158  1  0.45241767  0.66666667  0.25000000  1.0
  Ti  Ti159  1  0.78575100  0.00000000  0.25000000  1.0
  Ti  Ti160  1  0.78575100  0.33333333  0.25000000  1.0
  Ti  Ti161  1  0.78575100  0.66666667  0.25000000  1.0
  Ni  Ni162  1  0.30498300  0.00000000  0.22368421  1.0
  Ni  Ni163  1  0.30498300  0.33333333  0.22368421  1.0
  Ni  Ni164  1  0.30498300  0.66666667  0.22368421  1.0
  Ni  Ni165  1  0.63831633  0.00000000  0.22368421  1.0
  Ni  Ni166  1  0.63831633  0.33333333  0.22368421  1.0
  Ni  Ni167  1  0.63831633  0.66666667  0.22368421  1.0
  Ni  Ni168  1  0.97164967  0.00000000  0.22368421  1.0
  Ni  Ni169  1  0.97164967  0.33333333  0.22368421  1.0
  Ni  Ni170  1  0.97164967  0.66666667  0.22368421  1.0
  Ni  Ni171  1  0.02835033  0.33333333  0.25000000  1.0
  Ni  Ni172  1  0.02835033  0.66666667  0.25000000  1.0
  Ni  Ni173  1  0.02835033  1.00000000  0.25000000  1.0
  Ni  Ni174  1  0.36168367  0.33333333  0.25000000  1.0
  Ni  Ni175  1  0.36168367  0.66666667  0.25000000  1.0
  Ni  Ni176  1  0.36168367  1.00000000  0.25000000  1.0
  Ni  Ni177  1  0.69501700  0.33333333  0.25000000  1.0
  Ni  Ni178  1  0.69501700  0.66666667  0.25000000  1.0
  Ni  Ni179  1  0.69501700  1.00000000  0.25000000  1.0
  Ti  Ti180  1  0.21424900  0.00000000  0.27631579  1.0
  Ti  Ti181  1  0.21424900  0.33333333  0.27631579  1.0
  Ti  Ti182  1  0.21424900  0.66666667  0.27631579  1.0
  Ti  Ti183  1  0.54758233  0.00000000  0.27631579  1.0
  Ti  Ti184  1  0.54758233  0.33333333  0.27631579  1.0
  Ti  Ti185  1  0.54758233  0.66666667  0.27631579  1.0
  Ti  Ti186  1  0.88091567  0.00000000  0.27631579  1.0
  Ti  Ti187  1  0.88091567  0.33333333  0.27631579  1.0
  Ti  Ti188  1  0.88091567  0.66666667  0.27631579  1.0
  Ti  Ti189  1  0.11908433  0.00000000  0.30263158  1.0
  Ti  Ti190  1  0.11908433  0.33333333  0.30263158  1.0
  Ti  Ti191  1  0.11908433  0.66666667  0.30263158  1.0
  Ti  Ti192  1  0.45241767  0.00000000  0.30263158  1.0
  Ti  Ti193  1  0.45241767  0.33333333  0.30263158  1.0
  Ti  Ti194  1  0.45241767  0.66666667  0.30263158  1.0
  Ti  Ti195  1  0.78575100  0.00000000  0.30263158  1.0
  Ti  Ti196  1  0.78575100  0.33333333  0.30263158  1.0
  Ti  Ti197  1  0.78575100  0.66666667  0.30263158  1.0
  Ni  Ni198  1  0.30498300  0.00000000  0.27631579  1.0
  Ni  Ni199  1  0.30498300  0.33333333  0.27631579  1.0
  Ni  Ni200  1  0.30498300  0.66666667  0.27631579  1.0
  Ni  Ni201  1  0.63831633  0.00000000  0.27631579  1.0
  Ni  Ni202  1  0.63831633  0.33333333  0.27631579  1.0
  Ni  Ni203  1  0.63831633  0.66666667  0.27631579  1.0
  Ni  Ni204  1  0.97164967  0.00000000  0.27631579  1.0
  Ni  Ni205  1  0.97164967  0.33333333  0.27631579  1.0
  Ni  Ni206  1  0.97164967  0.66666667  0.27631579  1.0
  Ni  Ni207  1  0.02835033  0.33333333  0.30263158  1.0
  Ni  Ni208  1  0.02835033  0.66666667  0.30263158  1.0
  Ni  Ni209  1  0.02835033  1.00000000  0.30263158  1.0
  Ni  Ni210  1  0.36168367  0.33333333  0.30263158  1.0
  Ni  Ni211  1  0.36168367  0.66666667  0.30263158  1.0
  Ni  Ni212  1  0.36168367  1.00000000  0.30263158  1.0
  Ni  Ni213  1  0.69501700  0.33333333  0.30263158  1.0
  Ni  Ni214  1  0.69501700  0.66666667  0.30263158  1.0
  Ni  Ni215  1  0.69501700  1.00000000  0.30263158  1.0
  Ti  Ti216  1  0.21424900  0.00000000  0.32894737  1.0
  Ti  Ti217  1  0.21424900  0.33333333  0.32894737  1.0
  Ti  Ti218  1  0.21424900  0.66666667  0.32894737  1.0
  Ti  Ti219  1  0.54758233  0.00000000  0.32894737  1.0
  Ti  Ti220  1  0.54758233  0.33333333  0.32894737  1.0
  Ti  Ti221  1  0.54758233  0.66666667  0.32894737  1.0
  Ti  Ti222  1  0.88091567  0.00000000  0.32894737  1.0
  Ti  Ti223  1  0.88091567  0.33333333  0.32894737  1.0
  Ti  Ti224  1  0.88091567  0.66666667  0.32894737  1.0
  Ti  Ti225  1  0.11908433  0.00000000  0.35526316  1.0
  Ti  Ti226  1  0.11908433  0.33333333  0.35526316  1.0
  Ti  Ti227  1  0.11908433  0.66666667  0.35526316  1.0
  Ti  Ti228  1  0.45241767  0.00000000  0.35526316  1.0
  Ti  Ti229  1  0.45241767  0.33333333  0.35526316  1.0
  Ti  Ti230  1  0.45241767  0.66666667  0.35526316  1.0
  Ti  Ti231  1  0.78575100  0.00000000  0.35526316  1.0
  Ti  Ti232  1  0.78575100  0.33333333  0.35526316  1.0
  Ti  Ti233  1  0.78575100  0.66666667  0.35526316  1.0
  Ni  Ni234  1  0.30498300  0.00000000  0.32894737  1.0
  Ni  Ni235  1  0.30498300  0.33333333  0.32894737  1.0
  Ni  Ni236  1  0.30498300  0.66666667  0.32894737  1.0
  Ni  Ni237  1  0.63831633  0.00000000  0.32894737  1.0
  Ni  Ni238  1  0.63831633  0.33333333  0.32894737  1.0
  Ni  Ni239  1  0.63831633  0.66666667  0.32894737  1.0
  Ni  Ni240  1  0.97164967  0.00000000  0.32894737  1.0
  Ni  Ni241  1  0.97164967  0.33333333  0.32894737  1.0
  Ni  Ni242  1  0.97164967  0.66666667  0.32894737  1.0
  Ni  Ni243  1  0.02835033  0.33333333  0.35526316  1.0
  Ni  Ni244  1  0.02835033  0.66666667  0.35526316  1.0
  Ni  Ni245  1  0.02835033  1.00000000  0.35526316  1.0
  Ni  Ni246  1  0.36168367  0.33333333  0.35526316  1.0
  Ni  Ni247  1  0.36168367  0.66666667  0.35526316  1.0
  Ni  Ni248  1  0.36168367  1.00000000  0.35526316  1.0
  Ni  Ni249  1  0.69501700  0.33333333  0.35526316  1.0
  Ni  Ni250  1  0.69501700  0.66666667  0.35526316  1.0
  Ni  Ni251  1  0.69501700  1.00000000  0.35526316  1.0
  Ti  Ti252  1  0.21424900  0.00000000  0.38157895  1.0
  Ti  Ti253  1  0.21424900  0.33333333  0.38157895  1.0
  Ti  Ti254  1  0.21424900  0.66666667  0.38157895  1.0
  Ti  Ti255  1  0.54758233  0.00000000  0.38157895  1.0
  Ti  Ti256  1  0.54758233  0.33333333  0.38157895  1.0
  Ti  Ti257  1  0.54758233  0.66666667  0.38157895  1.0
  Ti  Ti258  1  0.88091567  0.00000000  0.38157895  1.0
  Ti  Ti259  1  0.88091567  0.33333333  0.38157895  1.0
  Ti  Ti260  1  0.88091567  0.66666667  0.38157895  1.0
  Ti  Ti261  1  0.11908433  0.00000000  0.40789474  1.0
  Ti  Ti262  1  0.11908433  0.33333333  0.40789474  1.0
  Ti  Ti263  1  0.11908433  0.66666667  0.40789474  1.0
  Ti  Ti264  1  0.45241767  0.00000000  0.40789474  1.0
  Ti  Ti265  1  0.45241767  0.33333333  0.40789474  1.0
  Ti  Ti266  1  0.45241767  0.66666667  0.40789474  1.0
  Ti  Ti267  1  0.78575100  0.00000000  0.40789474  1.0
  Ti  Ti268  1  0.78575100  0.33333333  0.40789474  1.0
  Ti  Ti269  1  0.78575100  0.66666667  0.40789474  1.0
  Ni  Ni270  1  0.30498300  0.00000000  0.38157895  1.0
  Ni  Ni271  1  0.30498300  0.33333333  0.38157895  1.0
  Ni  Ni272  1  0.30498300  0.66666667  0.38157895  1.0
  Ni  Ni273  1  0.63831633  0.00000000  0.38157895  1.0
  Ni  Ni274  1  0.63831633  0.33333333  0.38157895  1.0
  Ni  Ni275  1  0.63831633  0.66666667  0.38157895  1.0
  Ni  Ni276  1  0.97164967  0.00000000  0.38157895  1.0
  Ni  Ni277  1  0.97164967  0.33333333  0.38157895  1.0
  Ni  Ni278  1  0.97164967  0.66666667  0.38157895  1.0
  Ni  Ni279  1  0.02835033  0.33333333  0.40789474  1.0
  Ni  Ni280  1  0.02835033  0.66666667  0.40789474  1.0
  Ni  Ni281  1  0.02835033  1.00000000  0.40789474  1.0
  Ni  Ni282  1  0.36168367  0.33333333  0.40789474  1.0
  Ni  Ni283  1  0.36168367  0.66666667  0.40789474  1.0
  Ni  Ni284  1  0.36168367  1.00000000  0.40789474  1.0
  Ni  Ni285  1  0.69501700  0.33333333  0.40789474  1.0
  Ni  Ni286  1  0.69501700  0.66666667  0.40789474  1.0
  Ni  Ni287  1  0.69501700  1.00000000  0.40789474  1.0
