# generated using pymatgen
data_TiNi
_symmetry_space_group_name_H-M   'P 1'
_cell_length_a   10.74423000
_cell_length_b   11.60702912
_cell_length_c   38.30124200
_cell_angle_alpha   135.00000000
_cell_angle_beta   90.00000000
_cell_angle_gamma   90.00000000
_symmetry_Int_Tables_number   1
_chemical_formula_structural   TiNi
_chemical_formula_sum   'Ti54 Ni54'
_cell_volume   3377.49122941
_cell_formula_units_Z   54
loop_
 _symmetry_equiv_pos_site_id
 _symmetry_equiv_pos_as_xyz
  1  'x, y, z'
loop_
 _atom_site_type_symbol
 _atom_site_label
 _atom_site_symmetry_multiplicity
 _atom_site_fract_x
 _atom_site_fract_y
 _atom_site_fract_z
 _atom_site_occupancy
  Ti  Ti0  1  0.16666667  0.16666667  0.03571429  1.0
  Ti  Ti1  1  0.16666667  0.50000000  0.03571429  1.0
  Ti  Ti2  1  0.16666667  0.83333333  0.03571429  1.0
  Ti  Ti3  1  0.50000000  0.16666667  0.03571429  1.0
  Ti  Ti4  1  0.50000000  0.50000000  0.03571429  1.0
  Ti  Ti5  1  0.50000000  0.83333333  0.03571429  1.0
  Ti  Ti6  1  0.83333333  0.16666667  0.03571429  1.0
  Ti  Ti7  1  0.83333333  0.50000000  0.03571429  1.0
  Ti  Ti8  1  0.83333333  0.83333333  0.03571429  1.0
  Ni  Ni9  1  0.00000000  0.00000000  0.03571429  1.0
  Ni  Ni10  1  0.00000000  0.33333333  0.03571429  1.0
  Ni  Ni11  1  0.00000000  0.66666667  0.03571429  1.0
  Ni  Ni12  1  0.33333333  0.00000000  0.03571429  1.0
  Ni  Ni13  1  0.33333333  0.33333333  0.03571429  1.0
  Ni  Ni14  1  0.33333333  0.66666667  0.03571429  1.0
  Ni  Ni15  1  0.66666667  0.00000000  0.03571429  1.0
  Ni  Ni16  1  0.66666667  0.33333333  0.03571429  1.0
  Ni  Ni17  1  0.66666667  0.66666667  0.03571429  1.0
  Ti  Ti18  1  0.16666667  0.16666667  0.10714286  1.0
  Ti  Ti19  1  0.16666667  0.50000000  0.10714286  1.0
  Ti  Ti20  1  0.16666667  0.83333333  0.10714286  1.0
  Ti  Ti21  1  0.50000000  0.16666667  0.10714286  1.0
  Ti  Ti22  1  0.50000000  0.50000000  0.10714286  1.0
  Ti  Ti23  1  0.50000000  0.83333333  0.10714286  1.0
  Ti  Ti24  1  0.83333333  0.16666667  0.10714286  1.0
  Ti  Ti25  1  0.83333333  0.50000000  0.10714286  1.0
  Ti  Ti26  1  0.83333333  0.83333333  0.10714286  1.0
  Ni  Ni27  1  0.00000000  0.00000000  0.10714286  1.0
  Ni  Ni28  1  0.00000000  0.33333333  0.10714286  1.0
  Ni  Ni29  1  0.00000000  0.66666667  0.10714286  1.0
  Ni  Ni30  1  0.33333333  0.00000000  0.10714286  1.0
  Ni  Ni31  1  0.33333333  0.33333333  0.10714286  1.0
  Ni  Ni32  1  0.33333333  0.66666667  0.10714286  1.0
  Ni  Ni33  1  0.66666667  0.00000000  0.10714286  1.0
  Ni  Ni34  1  0.66666667  0.33333333  0.10714286  1.0
  Ni  Ni35  1  0.66666667  0.66666667  0.10714286  1.0
  Ti  Ti36  1  0.16666667  0.16666667  0.17857143  1.0
  Ti  Ti37  1  0.16666667  0.50000000  0.17857143  1.0
  Ti  Ti38  1  0.16666667  0.83333333  0.17857143  1.0
  Ti  Ti39  1  0.50000000  0.16666667  0.17857143  1.0
  Ti  Ti40  1  0.50000000  0.50000000  0.17857143  1.0
  Ti  Ti41  1  0.50000000  0.83333333  0.17857143  1.0
  Ti  Ti42  1  0.83333333  0.16666667  0.17857143  1.0
  Ti  Ti43  1  0.83333333  0.50000000  0.17857143  1.0
  Ti  Ti44  1  0.83333333  0.83333333  0.17857143  1.0
  Ni  Ni45  1  0.00000000  0.00000000  0.17857143  1.0
  Ni  Ni46  1  0.00000000  0.33333333  0.17857143  1.0
  Ni  Ni47  1  0.00000000  0.66666667  0.17857143  1.0
  Ni  Ni48  1  0.33333333  0.00000000  0.17857143  1.0
  Ni  Ni49  1  0.33333333  0.33333333  0.17857143  1.0
  Ni  Ni50  1  0.33333333  0.66666667  0.17857143  1.0
  Ni  Ni51  1  0.66666667  0.00000000  0.17857143  1.0
  Ni  Ni52  1  0.66666667  0.33333333  0.17857143  1.0
  Ni  Ni53  1  0.66666667  0.66666667  0.17857143  1.0
  Ti  Ti54  1  0.16666667  0.16666667  0.25000000  1.0
  Ti  Ti55  1  0.16666667  0.50000000  0.25000000  1.0
  Ti  Ti56  1  0.16666667  0.83333333  0.25000000  1.0
  Ti  Ti57  1  0.50000000  0.16666667  0.25000000  1.0
  Ti  Ti58  1  0.50000000  0.50000000  0.25000000  1.0
  Ti  Ti59  1  0.50000000  0.83333333  0.25000000  1.0
  Ti  Ti60  1  0.83333333  0.16666667  0.25000000  1.0
  Ti  Ti61  1  0.83333333  0.50000000  0.25000000  1.0
  Ti  Ti62  1  0.83333333  0.83333333  0.25000000  1.0
  Ni  Ni63  1  0.00000000  0.00000000  0.25000000  1.0
  Ni  Ni64  1  0.00000000  0.33333333  0.25000000  1.0
  Ni  Ni65  1  0.00000000  0.66666667  0.25000000  1.0
  Ni  Ni66  1  0.33333333  0.00000000  0.25000000  1.0
  Ni  Ni67  1  0.33333333  0.33333333  0.25000000  1.0
  Ni  Ni68  1  0.33333333  0.66666667  0.25000000  1.0
  Ni  Ni69  1  0.66666667  0.00000000  0.25000000  1.0
  Ni  Ni70  1  0.66666667  0.33333333  0.25000000  1.0
  Ni  Ni71  1  0.66666667  0.66666667  0.25000000  1.0
  Ti  Ti72  1  0.16666667  0.16666667  0.32142857  1.0
  Ti  Ti73  1  0.16666667  0.50000000  0.32142857  1.0
  Ti  Ti74  1  0.16666667  0.83333333  0.32142857  1.0
  Ti  Ti75  1  0.50000000  0.16666667  0.32142857  1.0
  Ti  Ti76  1  0.50000000  0.50000000  0.32142857  1.0
  Ti  Ti77  1  0.50000000  0.83333333  0.32142857  1.0
  Ti  Ti78  1  0.83333333  0.16666667  0.32142857  1.0
  Ti  Ti79  1  0.83333333  0.50000000  0.32142857  1.0
  Ti  Ti80  1  0.83333333  0.83333333  0.32142857  1.0
  Ni  Ni81  1  0.00000000  0.00000000  0.32142857  1.0
  Ni  Ni82  1  0.00000000  0.33333333  0.32142857  1.0
  Ni  Ni83  1  0.00000000  0.66666667  0.32142857  1.0
  Ni  Ni84  1  0.33333333  0.00000000  0.32142857  1.0
  Ni  Ni85  1  0.33333333  0.33333333  0.32142857  1.0
  Ni  Ni86  1  0.33333333  0.66666667  0.32142857  1.0
  Ni  Ni87  1  0.66666667  0.00000000  0.32142857  1.0
  Ni  Ni88  1  0.66666667  0.33333333  0.32142857  1.0
  Ni  Ni89  1  0.66666667  0.66666667  0.32142857  1.0
  Ti  Ti90  1  0.16666667  0.16666667  0.39285714  1.0
  Ti  Ti91  1  0.16666667  0.50000000  0.39285714  1.0
  Ti  Ti92  1  0.16666667  0.83333333  0.39285714  1.0
  Ti  Ti93  1  0.50000000  0.16666667  0.39285714  1.0
  Ti  Ti94  1  0.50000000  0.50000000  0.39285714  1.0
  Ti  Ti95  1  0.50000000  0.83333333  0.39285714  1.0
  Ti  Ti96  1  0.83333333  0.16666667  0.39285714  1.0
  Ti  Ti97  1  0.83333333  0.50000000  0.39285714  1.0
  Ti  Ti98  1  0.83333333  0.83333333  0.39285714  1.0
  Ni  Ni99  1  0.00000000  0.00000000  0.39285714  1.0
  Ni  Ni100  1  0.00000000  0.33333333  0.39285714  1.0
  Ni  Ni101  1  0.00000000  0.66666667  0.39285714  1.0
  Ni  Ni102  1  0.33333333  0.00000000  0.39285714  1.0
  Ni  Ni103  1  0.33333333  0.33333333  0.39285714  1.0
  Ni  Ni104  1  0.33333333  0.66666667  0.39285714  1.0
  Ni  Ni105  1  0.66666667  0.00000000  0.39285714  1.0
  Ni  Ni106  1  0.66666667  0.33333333  0.39285714  1.0
  Ni  Ni107  1  0.66666667  0.66666667  0.39285714  1.0
