# generated using pymatgen
data_TiNi
_symmetry_space_group_name_H-M   'P 1'
_cell_length_a   26.80114184
_cell_length_b   16.01430696
_cell_length_c   32.89671600
_cell_angle_alpha   120.90071614
_cell_angle_beta   107.87005747
_cell_angle_gamma   80.93306634
_symmetry_Int_Tables_number   1
_chemical_formula_structural   TiNi
_chemical_formula_sum   'Ti180 Ni180'
_cell_volume   11530.70875762
_cell_formula_units_Z   180
loop_
 _symmetry_equiv_pos_site_id
 _symmetry_equiv_pos_as_xyz
  1  'x, y, z'
loop_
 _atom_site_type_symbol
 _atom_site_label
 _atom_site_symmetry_multiplicity
 _atom_site_fract_x
 _atom_site_fract_y
 _atom_site_fract_z
 _atom_site_occupancy
  Ti  Ti0  1  0.12500000  0.09422500  0.01313958  1.0
  Ti  Ti1  1  0.12500000  0.42755833  0.01313958  1.0
  Ti  Ti2  1  0.12500000  0.76089167  0.01313958  1.0
  Ti  Ti3  1  0.45833333  0.09422500  0.01313958  1.0
  Ti  Ti4  1  0.45833333  0.42755833  0.01313958  1.0
  Ti  Ti5  1  0.45833333  0.76089167  0.01313958  1.0
  Ti  Ti6  1  0.79166667  0.09422500  0.01313958  1.0
  Ti  Ti7  1  0.79166667  0.42755833  0.01313958  1.0
  Ti  Ti8  1  0.79166667  0.76089167  0.01313958  1.0
  Ti  Ti9  1  0.29166667  0.09422500  0.05480625  1.0
  Ti  Ti10  1  0.29166667  0.42755833  0.05480625  1.0
  Ti  Ti11  1  0.29166667  0.76089167  0.05480625  1.0
  Ti  Ti12  1  0.62500000  0.09422500  0.05480625  1.0
  Ti  Ti13  1  0.62500000  0.42755833  0.05480625  1.0
  Ti  Ti14  1  0.62500000  0.76089167  0.05480625  1.0
  Ti  Ti15  1  0.95833333  0.09422500  0.05480625  1.0
  Ti  Ti16  1  0.95833333  0.42755833  0.05480625  1.0
  Ti  Ti17  1  0.95833333  0.76089167  0.05480625  1.0
  Ti  Ti18  1  0.04166667  0.23910833  0.02852708  1.0
  Ti  Ti19  1  0.04166667  0.57244167  0.02852708  1.0
  Ti  Ti20  1  0.04166667  0.90577500  0.02852708  1.0
  Ti  Ti21  1  0.37500000  0.23910833  0.02852708  1.0
  Ti  Ti22  1  0.37500000  0.57244167  0.02852708  1.0
  Ti  Ti23  1  0.37500000  0.90577500  0.02852708  1.0
  Ti  Ti24  1  0.70833333  0.23910833  0.02852708  1.0
  Ti  Ti25  1  0.70833333  0.57244167  0.02852708  1.0
  Ti  Ti26  1  0.70833333  0.90577500  0.02852708  1.0
  Ti  Ti27  1  0.20833333  0.23910833  0.07019375  1.0
  Ti  Ti28  1  0.20833333  0.57244167  0.07019375  1.0
  Ti  Ti29  1  0.20833333  0.90577500  0.07019375  1.0
  Ti  Ti30  1  0.54166667  0.23910833  0.07019375  1.0
  Ti  Ti31  1  0.54166667  0.57244167  0.07019375  1.0
  Ti  Ti32  1  0.54166667  0.90577500  0.07019375  1.0
  Ti  Ti33  1  0.87500000  0.23910833  0.07019375  1.0
  Ti  Ti34  1  0.87500000  0.57244167  0.07019375  1.0
  Ti  Ti35  1  0.87500000  0.90577500  0.07019375  1.0
  Ni  Ni36  1  0.12500000  0.26994900  0.01540392  1.0
  Ni  Ni37  1  0.12500000  0.60328233  0.01540392  1.0
  Ni  Ni38  1  0.12500000  0.93661567  0.01540392  1.0
  Ni  Ni39  1  0.45833333  0.26994900  0.01540392  1.0
  Ni  Ni40  1  0.45833333  0.60328233  0.01540392  1.0
  Ni  Ni41  1  0.45833333  0.93661567  0.01540392  1.0
  Ni  Ni42  1  0.79166667  0.26994900  0.01540392  1.0
  Ni  Ni43  1  0.79166667  0.60328233  0.01540392  1.0
  Ni  Ni44  1  0.79166667  0.93661567  0.01540392  1.0
  Ni  Ni45  1  0.29166667  0.26994900  0.05707058  1.0
  Ni  Ni46  1  0.29166667  0.60328233  0.05707058  1.0
  Ni  Ni47  1  0.29166667  0.93661567  0.05707058  1.0
  Ni  Ni48  1  0.62500000  0.26994900  0.05707058  1.0
  Ni  Ni49  1  0.62500000  0.60328233  0.05707058  1.0
  Ni  Ni50  1  0.62500000  0.93661567  0.05707058  1.0
  Ni  Ni51  1  0.95833333  0.26994900  0.05707058  1.0
  Ni  Ni52  1  0.95833333  0.60328233  0.05707058  1.0
  Ni  Ni53  1  0.95833333  0.93661567  0.05707058  1.0
  Ni  Ni54  1  0.04166667  0.06338433  0.02626275  1.0
  Ni  Ni55  1  0.04166667  0.39671767  0.02626275  1.0
  Ni  Ni56  1  0.04166667  0.73005100  0.02626275  1.0
  Ni  Ni57  1  0.37500000  0.06338433  0.02626275  1.0
  Ni  Ni58  1  0.37500000  0.39671767  0.02626275  1.0
  Ni  Ni59  1  0.37500000  0.73005100  0.02626275  1.0
  Ni  Ni60  1  0.70833333  0.06338433  0.02626275  1.0
  Ni  Ni61  1  0.70833333  0.39671767  0.02626275  1.0
  Ni  Ni62  1  0.70833333  0.73005100  0.02626275  1.0
  Ni  Ni63  1  0.20833333  0.06338433  0.06792942  1.0
  Ni  Ni64  1  0.20833333  0.39671767  0.06792942  1.0
  Ni  Ni65  1  0.20833333  0.73005100  0.06792942  1.0
  Ni  Ni66  1  0.54166667  0.06338433  0.06792942  1.0
  Ni  Ni67  1  0.54166667  0.39671767  0.06792942  1.0
  Ni  Ni68  1  0.54166667  0.73005100  0.06792942  1.0
  Ni  Ni69  1  0.87500000  0.06338433  0.06792942  1.0
  Ni  Ni70  1  0.87500000  0.39671767  0.06792942  1.0
  Ni  Ni71  1  0.87500000  0.73005100  0.06792942  1.0
  Ti  Ti72  1  0.12500000  0.09422500  0.09647292  1.0
  Ti  Ti73  1  0.12500000  0.42755833  0.09647292  1.0
  Ti  Ti74  1  0.12500000  0.76089167  0.09647292  1.0
  Ti  Ti75  1  0.45833333  0.09422500  0.09647292  1.0
  Ti  Ti76  1  0.45833333  0.42755833  0.09647292  1.0
  Ti  Ti77  1  0.45833333  0.76089167  0.09647292  1.0
  Ti  Ti78  1  0.79166667  0.09422500  0.09647292  1.0
  Ti  Ti79  1  0.79166667  0.42755833  0.09647292  1.0
  Ti  Ti80  1  0.79166667  0.76089167  0.09647292  1.0
  Ti  Ti81  1  0.29166667  0.09422500  0.13813958  1.0
  Ti  Ti82  1  0.29166667  0.42755833  0.13813958  1.0
  Ti  Ti83  1  0.29166667  0.76089167  0.13813958  1.0
  Ti  Ti84  1  0.62500000  0.09422500  0.13813958  1.0
  Ti  Ti85  1  0.62500000  0.42755833  0.13813958  1.0
  Ti  Ti86  1  0.62500000  0.76089167  0.13813958  1.0
  Ti  Ti87  1  0.95833333  0.09422500  0.13813958  1.0
  Ti  Ti88  1  0.95833333  0.42755833  0.13813958  1.0
  Ti  Ti89  1  0.95833333  0.76089167  0.13813958  1.0
  Ti  Ti90  1  0.04166667  0.23910833  0.11186042  1.0
  Ti  Ti91  1  0.04166667  0.57244167  0.11186042  1.0
  Ti  Ti92  1  0.04166667  0.90577500  0.11186042  1.0
  Ti  Ti93  1  0.37500000  0.23910833  0.11186042  1.0
  Ti  Ti94  1  0.37500000  0.57244167  0.11186042  1.0
  Ti  Ti95  1  0.37500000  0.90577500  0.11186042  1.0
  Ti  Ti96  1  0.70833333  0.23910833  0.11186042  1.0
  Ti  Ti97  1  0.70833333  0.57244167  0.11186042  1.0
  Ti  Ti98  1  0.70833333  0.90577500  0.11186042  1.0
  Ti  Ti99  1  0.20833333  0.23910833  0.15352708  1.0
  Ti  Ti100  1  0.20833333  0.57244167  0.15352708  1.0
  Ti  Ti101  1  0.20833333  0.90577500  0.15352708  1.0
  Ti  Ti102  1  0.54166667  0.23910833  0.15352708  1.0
  Ti  Ti103  1  0.54166667  0.57244167  0.15352708  1.0
  Ti  Ti104  1  0.54166667  0.90577500  0.15352708  1.0
  Ti  Ti105  1  0.87500000  0.23910833  0.15352708  1.0
  Ti  Ti106  1  0.87500000  0.57244167  0.15352708  1.0
  Ti  Ti107  1  0.87500000  0.90577500  0.15352708  1.0
  Ni  Ni108  1  0.12500000  0.26994900  0.09873725  1.0
  Ni  Ni109  1  0.12500000  0.60328233  0.09873725  1.0
  Ni  Ni110  1  0.12500000  0.93661567  0.09873725  1.0
  Ni  Ni111  1  0.45833333  0.26994900  0.09873725  1.0
  Ni  Ni112  1  0.45833333  0.60328233  0.09873725  1.0
  Ni  Ni113  1  0.45833333  0.93661567  0.09873725  1.0
  Ni  Ni114  1  0.79166667  0.26994900  0.09873725  1.0
  Ni  Ni115  1  0.79166667  0.60328233  0.09873725  1.0
  Ni  Ni116  1  0.79166667  0.93661567  0.09873725  1.0
  Ni  Ni117  1  0.29166667  0.26994900  0.14040392  1.0
  Ni  Ni118  1  0.29166667  0.60328233  0.14040392  1.0
  Ni  Ni119  1  0.29166667  0.93661567  0.14040392  1.0
  Ni  Ni120  1  0.62500000  0.26994900  0.14040392  1.0
  Ni  Ni121  1  0.62500000  0.60328233  0.14040392  1.0
  Ni  Ni122  1  0.62500000  0.93661567  0.14040392  1.0
  Ni  Ni123  1  0.95833333  0.26994900  0.14040392  1.0
  Ni  Ni124  1  0.95833333  0.60328233  0.14040392  1.0
  Ni  Ni125  1  0.95833333  0.93661567  0.14040392  1.0
  Ni  Ni126  1  0.04166667  0.06338433  0.10959608  1.0
  Ni  Ni127  1  0.04166667  0.39671767  0.10959608  1.0
  Ni  Ni128  1  0.04166667  0.73005100  0.10959608  1.0
  Ni  Ni129  1  0.37500000  0.06338433  0.10959608  1.0
  Ni  Ni130  1  0.37500000  0.39671767  0.10959608  1.0
  Ni  Ni131  1  0.37500000  0.73005100  0.10959608  1.0
  Ni  Ni132  1  0.70833333  0.06338433  0.10959608  1.0
  Ni  Ni133  1  0.70833333  0.39671767  0.10959608  1.0
  Ni  Ni134  1  0.70833333  0.73005100  0.10959608  1.0
  Ni  Ni135  1  0.20833333  0.06338433  0.15126275  1.0
  Ni  Ni136  1  0.20833333  0.39671767  0.15126275  1.0
  Ni  Ni137  1  0.20833333  0.73005100  0.15126275  1.0
  Ni  Ni138  1  0.54166667  0.06338433  0.15126275  1.0
  Ni  Ni139  1  0.54166667  0.39671767  0.15126275  1.0
  Ni  Ni140  1  0.54166667  0.73005100  0.15126275  1.0
  Ni  Ni141  1  0.87500000  0.06338433  0.15126275  1.0
  Ni  Ni142  1  0.87500000  0.39671767  0.15126275  1.0
  Ni  Ni143  1  0.87500000  0.73005100  0.15126275  1.0
  Ti  Ti144  1  0.12500000  0.09422500  0.17980625  1.0
  Ti  Ti145  1  0.12500000  0.42755833  0.17980625  1.0
  Ti  Ti146  1  0.12500000  0.76089167  0.17980625  1.0
  Ti  Ti147  1  0.45833333  0.09422500  0.17980625  1.0
  Ti  Ti148  1  0.45833333  0.42755833  0.17980625  1.0
  Ti  Ti149  1  0.45833333  0.76089167  0.17980625  1.0
  Ti  Ti150  1  0.79166667  0.09422500  0.17980625  1.0
  Ti  Ti151  1  0.79166667  0.42755833  0.17980625  1.0
  Ti  Ti152  1  0.79166667  0.76089167  0.17980625  1.0
  Ti  Ti153  1  0.29166667  0.09422500  0.22147292  1.0
  Ti  Ti154  1  0.29166667  0.42755833  0.22147292  1.0
  Ti  Ti155  1  0.29166667  0.76089167  0.22147292  1.0
  Ti  Ti156  1  0.62500000  0.09422500  0.22147292  1.0
  Ti  Ti157  1  0.62500000  0.42755833  0.22147292  1.0
  Ti  Ti158  1  0.62500000  0.76089167  0.22147292  1.0
  Ti  Ti159  1  0.95833333  0.09422500  0.22147292  1.0
  Ti  Ti160  1  0.95833333  0.42755833  0.22147292  1.0
  Ti  Ti161  1  0.95833333  0.76089167  0.22147292  1.0
  Ti  Ti162  1  0.04166667  0.23910833  0.19519375  1.0
  Ti  Ti163  1  0.04166667  0.57244167  0.19519375  1.0
  Ti  Ti164  1  0.04166667  0.90577500  0.19519375  1.0
  Ti  Ti165  1  0.37500000  0.23910833  0.19519375  1.0
  Ti  Ti166  1  0.37500000  0.57244167  0.19519375  1.0
  Ti  Ti167  1  0.37500000  0.90577500  0.19519375  1.0
  Ti  Ti168  1  0.70833333  0.23910833  0.19519375  1.0
  Ti  Ti169  1  0.70833333  0.57244167  0.19519375  1.0
  Ti  Ti170  1  0.70833333  0.90577500  0.19519375  1.0
  Ti  Ti171  1  0.20833333  0.23910833  0.23686042  1.0
  Ti  Ti172  1  0.20833333  0.57244167  0.23686042  1.0
  Ti  Ti173  1  0.20833333  0.90577500  0.23686042  1.0
  Ti  Ti174  1  0.54166667  0.23910833  0.23686042  1.0
  Ti  Ti175  1  0.54166667  0.57244167  0.23686042  1.0
  Ti  Ti176  1  0.54166667  0.90577500  0.23686042  1.0
  Ti  Ti177  1  0.87500000  0.23910833  0.23686042  1.0
  Ti  Ti178  1  0.87500000  0.57244167  0.23686042  1.0
  Ti  Ti179  1  0.87500000  0.90577500  0.23686042  1.0
  Ni  Ni180  1  0.12500000  0.26994900  0.18207058  1.0
  Ni  Ni181  1  0.12500000  0.60328233  0.18207058  1.0
  Ni  Ni182  1  0.12500000  0.93661567  0.18207058  1.0
  Ni  Ni183  1  0.45833333  0.26994900  0.18207058  1.0
  Ni  Ni184  1  0.45833333  0.60328233  0.18207058  1.0
  Ni  Ni185  1  0.45833333  0.93661567  0.18207058  1.0
  Ni  Ni186  1  0.79166667  0.26994900  0.18207058  1.0
  Ni  Ni187  1  0.79166667  0.60328233  0.18207058  1.0
  Ni  Ni188  1  0.79166667  0.93661567  0.18207058  1.0
  Ni  Ni189  1  0.29166667  0.26994900  0.22373725  1.0
  Ni  Ni190  1  0.29166667  0.60328233  0.22373725  1.0
  Ni  Ni191  1  0.29166667  0.93661567  0.22373725  1.0
  Ni  Ni192  1  0.62500000  0.26994900  0.22373725  1.0
  Ni  Ni193  1  0.62500000  0.60328233  0.22373725  1.0
  Ni  Ni194  1  0.62500000  0.93661567  0.22373725  1.0
  Ni  Ni195  1  0.95833333  0.26994900  0.22373725  1.0
  Ni  Ni196  1  0.95833333  0.60328233  0.22373725  1.0
  Ni  Ni197  1  0.95833333  0.93661567  0.22373725  1.0
  Ni  Ni198  1  0.04166667  0.06338433  0.19292942  1.0
  Ni  Ni199  1  0.04166667  0.39671767  0.19292942  1.0
  Ni  Ni200  1  0.04166667  0.73005100  0.19292942  1.0
  Ni  Ni201  1  0.37500000  0.06338433  0.19292942  1.0
  Ni  Ni202  1  0.37500000  0.39671767  0.19292942  1.0
  Ni  Ni203  1  0.37500000  0.73005100  0.19292942  1.0
  Ni  Ni204  1  0.70833333  0.06338433  0.19292942  1.0
  Ni  Ni205  1  0.70833333  0.39671767  0.19292942  1.0
  Ni  Ni206  1  0.70833333  0.73005100  0.19292942  1.0
  Ni  Ni207  1  0.20833333  0.06338433  0.23459608  1.0
  Ni  Ni208  1  0.20833333  0.39671767  0.23459608  1.0
  Ni  Ni209  1  0.20833333  0.73005100  0.23459608  1.0
  Ni  Ni210  1  0.54166667  0.06338433  0.23459608  1.0
  Ni  Ni211  1  0.54166667  0.39671767  0.23459608  1.0
  Ni  Ni212  1  0.54166667  0.73005100  0.23459608  1.0
  Ni  Ni213  1  0.87500000  0.06338433  0.23459608  1.0
  Ni  Ni214  1  0.87500000  0.39671767  0.23459608  1.0
  Ni  Ni215  1  0.87500000  0.73005100  0.23459608  1.0
  Ti  Ti216  1  0.12500000  0.09422500  0.26313958  1.0
  Ti  Ti217  1  0.12500000  0.42755833  0.26313958  1.0
  Ti  Ti218  1  0.12500000  0.76089167  0.26313958  1.0
  Ti  Ti219  1  0.45833333  0.09422500  0.26313958  1.0
  Ti  Ti220  1  0.45833333  0.42755833  0.26313958  1.0
  Ti  Ti221  1  0.45833333  0.76089167  0.26313958  1.0
  Ti  Ti222  1  0.79166667  0.09422500  0.26313958  1.0
  Ti  Ti223  1  0.79166667  0.42755833  0.26313958  1.0
  Ti  Ti224  1  0.79166667  0.76089167  0.26313958  1.0
  Ti  Ti225  1  0.29166667  0.09422500  0.30480625  1.0
  Ti  Ti226  1  0.29166667  0.42755833  0.30480625  1.0
  Ti  Ti227  1  0.29166667  0.76089167  0.30480625  1.0
  Ti  Ti228  1  0.62500000  0.09422500  0.30480625  1.0
  Ti  Ti229  1  0.62500000  0.42755833  0.30480625  1.0
  Ti  Ti230  1  0.62500000  0.76089167  0.30480625  1.0
  Ti  Ti231  1  0.95833333  0.09422500  0.30480625  1.0
  Ti  Ti232  1  0.95833333  0.42755833  0.30480625  1.0
  Ti  Ti233  1  0.95833333  0.76089167  0.30480625  1.0
  Ti  Ti234  1  0.04166667  0.23910833  0.27852708  1.0
  Ti  Ti235  1  0.04166667  0.57244167  0.27852708  1.0
  Ti  Ti236  1  0.04166667  0.90577500  0.27852708  1.0
  Ti  Ti237  1  0.37500000  0.23910833  0.27852708  1.0
  Ti  Ti238  1  0.37500000  0.57244167  0.27852708  1.0
  Ti  Ti239  1  0.37500000  0.90577500  0.27852708  1.0
  Ti  Ti240  1  0.70833333  0.23910833  0.27852708  1.0
  Ti  Ti241  1  0.70833333  0.57244167  0.27852708  1.0
  Ti  Ti242  1  0.70833333  0.90577500  0.27852708  1.0
  Ti  Ti243  1  0.20833333  0.23910833  0.32019375  1.0
  Ti  Ti244  1  0.20833333  0.57244167  0.32019375  1.0
  Ti  Ti245  1  0.20833333  0.90577500  0.32019375  1.0
  Ti  Ti246  1  0.54166667  0.23910833  0.32019375  1.0
  Ti  Ti247  1  0.54166667  0.57244167  0.32019375  1.0
  Ti  Ti248  1  0.54166667  0.90577500  0.32019375  1.0
  Ti  Ti249  1  0.87500000  0.23910833  0.32019375  1.0
  Ti  Ti250  1  0.87500000  0.57244167  0.32019375  1.0
  Ti  Ti251  1  0.87500000  0.90577500  0.32019375  1.0
  Ni  Ni252  1  0.12500000  0.26994900  0.26540392  1.0
  Ni  Ni253  1  0.12500000  0.60328233  0.26540392  1.0
  Ni  Ni254  1  0.12500000  0.93661567  0.26540392  1.0
  Ni  Ni255  1  0.45833333  0.26994900  0.26540392  1.0
  Ni  Ni256  1  0.45833333  0.60328233  0.26540392  1.0
  Ni  Ni257  1  0.45833333  0.93661567  0.26540392  1.0
  Ni  Ni258  1  0.79166667  0.26994900  0.26540392  1.0
  Ni  Ni259  1  0.79166667  0.60328233  0.26540392  1.0
  Ni  Ni260  1  0.79166667  0.93661567  0.26540392  1.0
  Ni  Ni261  1  0.29166667  0.26994900  0.30707058  1.0
  Ni  Ni262  1  0.29166667  0.60328233  0.30707058  1.0
  Ni  Ni263  1  0.29166667  0.93661567  0.30707058  1.0
  Ni  Ni264  1  0.62500000  0.26994900  0.30707058  1.0
  Ni  Ni265  1  0.62500000  0.60328233  0.30707058  1.0
  Ni  Ni266  1  0.62500000  0.93661567  0.30707058  1.0
  Ni  Ni267  1  0.95833333  0.26994900  0.30707058  1.0
  Ni  Ni268  1  0.95833333  0.60328233  0.30707058  1.0
  Ni  Ni269  1  0.95833333  0.93661567  0.30707058  1.0
  Ni  Ni270  1  0.04166667  0.06338433  0.27626275  1.0
  Ni  Ni271  1  0.04166667  0.39671767  0.27626275  1.0
  Ni  Ni272  1  0.04166667  0.73005100  0.27626275  1.0
  Ni  Ni273  1  0.37500000  0.06338433  0.27626275  1.0
  Ni  Ni274  1  0.37500000  0.39671767  0.27626275  1.0
  Ni  Ni275  1  0.37500000  0.73005100  0.27626275  1.0
  Ni  Ni276  1  0.70833333  0.06338433  0.27626275  1.0
  Ni  Ni277  1  0.70833333  0.39671767  0.27626275  1.0
  Ni  Ni278  1  0.70833333  0.73005100  0.27626275  1.0
  Ni  Ni279  1  0.20833333  0.06338433  0.31792942  1.0
  Ni  Ni280  1  0.20833333  0.39671767  0.31792942  1.0
  Ni  Ni281  1  0.20833333  0.73005100  0.31792942  1.0
  Ni  Ni282  1  0.54166667  0.06338433  0.31792942  1.0
  Ni  Ni283  1  0.54166667  0.39671767  0.31792942  1.0
  Ni  Ni284  1  0.54166667  0.73005100  0.31792942  1.0
  Ni  Ni285  1  0.87500000  0.06338433  0.31792942  1.0
  Ni  Ni286  1  0.87500000  0.39671767  0.31792942  1.0
  Ni  Ni287  1  0.87500000  0.73005100  0.31792942  1.0
  Ti  Ti288  1  0.12500000  0.09422500  0.34647292  1.0
  Ti  Ti289  1  0.12500000  0.42755833  0.34647292  1.0
  Ti  Ti290  1  0.12500000  0.76089167  0.34647292  1.0
  Ti  Ti291  1  0.45833333  0.09422500  0.34647292  1.0
  Ti  Ti292  1  0.45833333  0.42755833  0.34647292  1.0
  Ti  Ti293  1  0.45833333  0.76089167  0.34647292  1.0
  Ti  Ti294  1  0.79166667  0.09422500  0.34647292  1.0
  Ti  Ti295  1  0.79166667  0.42755833  0.34647292  1.0
  Ti  Ti296  1  0.79166667  0.76089167  0.34647292  1.0
  Ti  Ti297  1  0.29166667  0.09422500  0.38813958  1.0
  Ti  Ti298  1  0.29166667  0.42755833  0.38813958  1.0
  Ti  Ti299  1  0.29166667  0.76089167  0.38813958  1.0
  Ti  Ti300  1  0.62500000  0.09422500  0.38813958  1.0
  Ti  Ti301  1  0.62500000  0.42755833  0.38813958  1.0
  Ti  Ti302  1  0.62500000  0.76089167  0.38813958  1.0
  Ti  Ti303  1  0.95833333  0.09422500  0.38813958  1.0
  Ti  Ti304  1  0.95833333  0.42755833  0.38813958  1.0
  Ti  Ti305  1  0.95833333  0.76089167  0.38813958  1.0
  Ti  Ti306  1  0.04166667  0.23910833  0.36186042  1.0
  Ti  Ti307  1  0.04166667  0.57244167  0.36186042  1.0
  Ti  Ti308  1  0.04166667  0.90577500  0.36186042  1.0
  Ti  Ti309  1  0.37500000  0.23910833  0.36186042  1.0
  Ti  Ti310  1  0.37500000  0.57244167  0.36186042  1.0
  Ti  Ti311  1  0.37500000  0.90577500  0.36186042  1.0
  Ti  Ti312  1  0.70833333  0.23910833  0.36186042  1.0
  Ti  Ti313  1  0.70833333  0.57244167  0.36186042  1.0
  Ti  Ti314  1  0.70833333  0.90577500  0.36186042  1.0
  Ti  Ti315  1  0.20833333  0.23910833  0.40352708  1.0
  Ti  Ti316  1  0.20833333  0.57244167  0.40352708  1.0
  Ti  Ti317  1  0.20833333  0.90577500  0.40352708  1.0
  Ti  Ti318  1  0.54166667  0.23910833  0.40352708  1.0
  Ti  Ti319  1  0.54166667  0.57244167  0.40352708  1.0
  Ti  Ti320  1  0.54166667  0.90577500  0.40352708  1.0
  Ti  Ti321  1  0.87500000  0.23910833  0.40352708  1.0
  Ti  Ti322  1  0.87500000  0.57244167  0.40352708  1.0
  Ti  Ti323  1  0.87500000  0.90577500  0.40352708  1.0
  Ni  Ni324  1  0.12500000  0.26994900  0.34873725  1.0
  Ni  Ni325  1  0.12500000  0.60328233  0.34873725  1.0
  Ni  Ni326  1  0.12500000  0.93661567  0.34873725  1.0
  Ni  Ni327  1  0.45833333  0.26994900  0.34873725  1.0
  Ni  Ni328  1  0.45833333  0.60328233  0.34873725  1.0
  Ni  Ni329  1  0.45833333  0.93661567  0.34873725  1.0
  Ni  Ni330  1  0.79166667  0.26994900  0.34873725  1.0
  Ni  Ni331  1  0.79166667  0.60328233  0.34873725  1.0
  Ni  Ni332  1  0.79166667  0.93661567  0.34873725  1.0
  Ni  Ni333  1  0.29166667  0.26994900  0.39040392  1.0
  Ni  Ni334  1  0.29166667  0.60328233  0.39040392  1.0
  Ni  Ni335  1  0.29166667  0.93661567  0.39040392  1.0
  Ni  Ni336  1  0.62500000  0.26994900  0.39040392  1.0
  Ni  Ni337  1  0.62500000  0.60328233  0.39040392  1.0
  Ni  Ni338  1  0.62500000  0.93661567  0.39040392  1.0
  Ni  Ni339  1  0.95833333  0.26994900  0.39040392  1.0
  Ni  Ni340  1  0.95833333  0.60328233  0.39040392  1.0
  Ni  Ni341  1  0.95833333  0.93661567  0.39040392  1.0
  Ni  Ni342  1  0.04166667  0.06338433  0.35959608  1.0
  Ni  Ni343  1  0.04166667  0.39671767  0.35959608  1.0
  Ni  Ni344  1  0.04166667  0.73005100  0.35959608  1.0
  Ni  Ni345  1  0.37500000  0.06338433  0.35959608  1.0
  Ni  Ni346  1  0.37500000  0.39671767  0.35959608  1.0
  Ni  Ni347  1  0.37500000  0.73005100  0.35959608  1.0
  Ni  Ni348  1  0.70833333  0.06338433  0.35959608  1.0
  Ni  Ni349  1  0.70833333  0.39671767  0.35959608  1.0
  Ni  Ni350  1  0.70833333  0.73005100  0.35959608  1.0
  Ni  Ni351  1  0.20833333  0.06338433  0.40126275  1.0
  Ni  Ni352  1  0.20833333  0.39671767  0.40126275  1.0
  Ni  Ni353  1  0.20833333  0.73005100  0.40126275  1.0
  Ni  Ni354  1  0.54166667  0.06338433  0.40126275  1.0
  Ni  Ni355  1  0.54166667  0.39671767  0.40126275  1.0
  Ni  Ni356  1  0.54166667  0.73005100  0.40126275  1.0
  Ni  Ni357  1  0.87500000  0.06338433  0.40126275  1.0
  Ni  Ni358  1  0.87500000  0.39671767  0.40126275  1.0
  Ni  Ni359  1  0.87500000  0.73005100  0.40126275  1.0
