# generated using pymatgen
data_TlNi
_symmetry_space_group_name_H-M   'P 1'
_cell_length_a   12.50779131
_cell_length_b   29.25463508
_cell_length_c   35.39092900
_cell_angle_alpha   58.77057317
_cell_angle_beta   90.00000000
_cell_angle_gamma   64.68788331
_symmetry_Int_Tables_number   1
_chemical_formula_structural   TlNi
_chemical_formula_sum   'Tl108 Ni108'
_cell_volume   9589.89480491
_cell_formula_units_Z   108
loop_
 _symmetry_equiv_pos_site_id
 _symmetry_equiv_pos_as_xyz
  1  'x, y, z'
loop_
 _atom_site_type_symbol
 _atom_site_label
 _atom_site_symmetry_multiplicity
 _atom_site_fract_x
 _atom_site_fract_y
 _atom_site_fract_z
 _atom_site_occupancy
  Tl  Tl0  1  0.11111111  0.05555556  0.07738095  1.0
  Tl  Tl1  1  0.11111111  0.38888889  0.07738095  1.0
  Tl  Tl2  1  0.11111111  0.72222222  0.07738095  1.0
  Tl  Tl3  1  0.44444444  0.05555556  0.07738095  1.0
  Tl  Tl4  1  0.44444444  0.38888889  0.07738095  1.0
  Tl  Tl5  1  0.44444444  0.72222222  0.07738095  1.0
  Tl  Tl6  1  0.77777778  0.05555556  0.07738095  1.0
  Tl  Tl7  1  0.77777778  0.38888889  0.07738095  1.0
  Tl  Tl8  1  0.77777778  0.72222222  0.07738095  1.0
  Tl  Tl9  1  0.11111111  0.22222222  0.00595238  1.0
  Tl  Tl10  1  0.11111111  0.55555556  0.00595238  1.0
  Tl  Tl11  1  0.11111111  0.88888889  0.00595238  1.0
  Tl  Tl12  1  0.44444444  0.22222222  0.00595238  1.0
  Tl  Tl13  1  0.44444444  0.55555556  0.00595238  1.0
  Tl  Tl14  1  0.44444444  0.88888889  0.00595238  1.0
  Tl  Tl15  1  0.77777778  0.22222222  0.00595238  1.0
  Tl  Tl16  1  0.77777778  0.55555556  0.00595238  1.0
  Tl  Tl17  1  0.77777778  0.88888889  0.00595238  1.0
  Tl  Tl18  1  0.22222222  0.11111111  0.12500000  1.0
  Tl  Tl19  1  0.22222222  0.44444444  0.12500000  1.0
  Tl  Tl20  1  0.22222222  0.77777778  0.12500000  1.0
  Tl  Tl21  1  0.55555556  0.11111111  0.12500000  1.0
  Tl  Tl22  1  0.55555556  0.44444444  0.12500000  1.0
  Tl  Tl23  1  0.55555556  0.77777778  0.12500000  1.0
  Tl  Tl24  1  0.88888889  0.11111111  0.12500000  1.0
  Tl  Tl25  1  0.88888889  0.44444444  0.12500000  1.0
  Tl  Tl26  1  0.88888889  0.77777778  0.12500000  1.0
  Tl  Tl27  1  0.22222222  0.27777778  0.05357143  1.0
  Tl  Tl28  1  0.22222222  0.61111111  0.05357143  1.0
  Tl  Tl29  1  0.22222222  0.94444444  0.05357143  1.0
  Tl  Tl30  1  0.55555556  0.27777778  0.05357143  1.0
  Tl  Tl31  1  0.55555556  0.61111111  0.05357143  1.0
  Tl  Tl32  1  0.55555556  0.94444444  0.05357143  1.0
  Tl  Tl33  1  0.88888889  0.27777778  0.05357143  1.0
  Tl  Tl34  1  0.88888889  0.61111111  0.05357143  1.0
  Tl  Tl35  1  0.88888889  0.94444444  0.05357143  1.0
  Ni  Ni36  1  0.00000000  0.16666667  0.13690476  1.0
  Ni  Ni37  1  0.00000000  0.50000000  0.13690476  1.0
  Ni  Ni38  1  0.00000000  0.83333333  0.13690476  1.0
  Ni  Ni39  1  0.33333333  0.16666667  0.13690476  1.0
  Ni  Ni40  1  0.33333333  0.50000000  0.13690476  1.0
  Ni  Ni41  1  0.33333333  0.83333333  0.13690476  1.0
  Ni  Ni42  1  0.66666667  0.16666667  0.13690476  1.0
  Ni  Ni43  1  0.66666667  0.50000000  0.13690476  1.0
  Ni  Ni44  1  0.66666667  0.83333333  0.13690476  1.0
  Ni  Ni45  1  0.00000000  0.00000000  0.06547619  1.0
  Ni  Ni46  1  0.00000000  0.33333333  0.06547619  1.0
  Ni  Ni47  1  0.00000000  0.66666667  0.06547619  1.0
  Ni  Ni48  1  0.33333333  0.00000000  0.06547619  1.0
  Ni  Ni49  1  0.33333333  0.33333333  0.06547619  1.0
  Ni  Ni50  1  0.33333333  0.66666667  0.06547619  1.0
  Ni  Ni51  1  0.66666667  0.00000000  0.06547619  1.0
  Ni  Ni52  1  0.66666667  0.33333333  0.06547619  1.0
  Ni  Ni53  1  0.66666667  0.66666667  0.06547619  1.0
  Ni  Ni54  1  0.00000000  0.16666667  0.06547619  1.0
  Ni  Ni55  1  0.00000000  0.50000000  0.06547619  1.0
  Ni  Ni56  1  0.00000000  0.83333333  0.06547619  1.0
  Ni  Ni57  1  0.33333333  0.16666667  0.06547619  1.0
  Ni  Ni58  1  0.33333333  0.50000000  0.06547619  1.0
  Ni  Ni59  1  0.33333333  0.83333333  0.06547619  1.0
  Ni  Ni60  1  0.66666667  0.16666667  0.06547619  1.0
  Ni  Ni61  1  0.66666667  0.50000000  0.06547619  1.0
  Ni  Ni62  1  0.66666667  0.83333333  0.06547619  1.0
  Ni  Ni63  1  0.00000000  0.00000000  0.13690476  1.0
  Ni  Ni64  1  0.00000000  0.33333333  0.13690476  1.0
  Ni  Ni65  1  0.00000000  0.66666667  0.13690476  1.0
  Ni  Ni66  1  0.33333333  0.00000000  0.13690476  1.0
  Ni  Ni67  1  0.33333333  0.33333333  0.13690476  1.0
  Ni  Ni68  1  0.33333333  0.66666667  0.13690476  1.0
  Ni  Ni69  1  0.66666667  0.00000000  0.13690476  1.0
  Ni  Ni70  1  0.66666667  0.33333333  0.13690476  1.0
  Ni  Ni71  1  0.66666667  0.66666667  0.13690476  1.0
  Tl  Tl72  1  0.11111111  0.05555556  0.22023810  1.0
  Tl  Tl73  1  0.11111111  0.38888889  0.22023810  1.0
  Tl  Tl74  1  0.11111111  0.72222222  0.22023810  1.0
  Tl  Tl75  1  0.44444444  0.05555556  0.22023810  1.0
  Tl  Tl76  1  0.44444444  0.38888889  0.22023810  1.0
  Tl  Tl77  1  0.44444444  0.72222222  0.22023810  1.0
  Tl  Tl78  1  0.77777778  0.05555556  0.22023810  1.0
  Tl  Tl79  1  0.77777778  0.38888889  0.22023810  1.0
  Tl  Tl80  1  0.77777778  0.72222222  0.22023810  1.0
  Tl  Tl81  1  0.11111111  0.22222222  0.14880952  1.0
  Tl  Tl82  1  0.11111111  0.55555556  0.14880952  1.0
  Tl  Tl83  1  0.11111111  0.88888889  0.14880952  1.0
  Tl  Tl84  1  0.44444444  0.22222222  0.14880952  1.0
  Tl  Tl85  1  0.44444444  0.55555556  0.14880952  1.0
  Tl  Tl86  1  0.44444444  0.88888889  0.14880952  1.0
  Tl  Tl87  1  0.77777778  0.22222222  0.14880952  1.0
  Tl  Tl88  1  0.77777778  0.55555556  0.14880952  1.0
  Tl  Tl89  1  0.77777778  0.88888889  0.14880952  1.0
  Tl  Tl90  1  0.22222222  0.11111111  0.26785714  1.0
  Tl  Tl91  1  0.22222222  0.44444444  0.26785714  1.0
  Tl  Tl92  1  0.22222222  0.77777778  0.26785714  1.0
  Tl  Tl93  1  0.55555556  0.11111111  0.26785714  1.0
  Tl  Tl94  1  0.55555556  0.44444444  0.26785714  1.0
  Tl  Tl95  1  0.55555556  0.77777778  0.26785714  1.0
  Tl  Tl96  1  0.88888889  0.11111111  0.26785714  1.0
  Tl  Tl97  1  0.88888889  0.44444444  0.26785714  1.0
  Tl  Tl98  1  0.88888889  0.77777778  0.26785714  1.0
  Tl  Tl99  1  0.22222222  0.27777778  0.19642857  1.0
  Tl  Tl100  1  0.22222222  0.61111111  0.19642857  1.0
  Tl  Tl101  1  0.22222222  0.94444444  0.19642857  1.0
  Tl  Tl102  1  0.55555556  0.27777778  0.19642857  1.0
  Tl  Tl103  1  0.55555556  0.61111111  0.19642857  1.0
  Tl  Tl104  1  0.55555556  0.94444444  0.19642857  1.0
  Tl  Tl105  1  0.88888889  0.27777778  0.19642857  1.0
  Tl  Tl106  1  0.88888889  0.61111111  0.19642857  1.0
  Tl  Tl107  1  0.88888889  0.94444444  0.19642857  1.0
  Ni  Ni108  1  0.00000000  0.16666667  0.27976190  1.0
  Ni  Ni109  1  0.00000000  0.50000000  0.27976190  1.0
  Ni  Ni110  1  0.00000000  0.83333333  0.27976190  1.0
  Ni  Ni111  1  0.33333333  0.16666667  0.27976190  1.0
  Ni  Ni112  1  0.33333333  0.50000000  0.27976190  1.0
  Ni  Ni113  1  0.33333333  0.83333333  0.27976190  1.0
  Ni  Ni114  1  0.66666667  0.16666667  0.27976190  1.0
  Ni  Ni115  1  0.66666667  0.50000000  0.27976190  1.0
  Ni  Ni116  1  0.66666667  0.83333333  0.27976190  1.0
  Ni  Ni117  1  0.00000000  0.00000000  0.20833333  1.0
  Ni  Ni118  1  0.00000000  0.33333333  0.20833333  1.0
  Ni  Ni119  1  0.00000000  0.66666667  0.20833333  1.0
  Ni  Ni120  1  0.33333333  0.00000000  0.20833333  1.0
  Ni  Ni121  1  0.33333333  0.33333333  0.20833333  1.0
  Ni  Ni122  1  0.33333333  0.66666667  0.20833333  1.0
  Ni  Ni123  1  0.66666667  0.00000000  0.20833333  1.0
  Ni  Ni124  1  0.66666667  0.33333333  0.20833333  1.0
  Ni  Ni125  1  0.66666667  0.66666667  0.20833333  1.0
  Ni  Ni126  1  0.00000000  0.16666667  0.20833333  1.0
  Ni  Ni127  1  0.00000000  0.50000000  0.20833333  1.0
  Ni  Ni128  1  0.00000000  0.83333333  0.20833333  1.0
  Ni  Ni129  1  0.33333333  0.16666667  0.20833333  1.0
  Ni  Ni130  1  0.33333333  0.50000000  0.20833333  1.0
  Ni  Ni131  1  0.33333333  0.83333333  0.20833333  1.0
  Ni  Ni132  1  0.66666667  0.16666667  0.20833333  1.0
  Ni  Ni133  1  0.66666667  0.50000000  0.20833333  1.0
  Ni  Ni134  1  0.66666667  0.83333333  0.20833333  1.0
  Ni  Ni135  1  0.00000000  0.00000000  0.27976190  1.0
  Ni  Ni136  1  0.00000000  0.33333333  0.27976190  1.0
  Ni  Ni137  1  0.00000000  0.66666667  0.27976190  1.0
  Ni  Ni138  1  0.33333333  0.00000000  0.27976190  1.0
  Ni  Ni139  1  0.33333333  0.33333333  0.27976190  1.0
  Ni  Ni140  1  0.33333333  0.66666667  0.27976190  1.0
  Ni  Ni141  1  0.66666667  0.00000000  0.27976190  1.0
  Ni  Ni142  1  0.66666667  0.33333333  0.27976190  1.0
  Ni  Ni143  1  0.66666667  0.66666667  0.27976190  1.0
  Tl  Tl144  1  0.11111111  0.05555556  0.36309524  1.0
  Tl  Tl145  1  0.11111111  0.38888889  0.36309524  1.0
  Tl  Tl146  1  0.11111111  0.72222222  0.36309524  1.0
  Tl  Tl147  1  0.44444444  0.05555556  0.36309524  1.0
  Tl  Tl148  1  0.44444444  0.38888889  0.36309524  1.0
  Tl  Tl149  1  0.44444444  0.72222222  0.36309524  1.0
  Tl  Tl150  1  0.77777778  0.05555556  0.36309524  1.0
  Tl  Tl151  1  0.77777778  0.38888889  0.36309524  1.0
  Tl  Tl152  1  0.77777778  0.72222222  0.36309524  1.0
  Tl  Tl153  1  0.11111111  0.22222222  0.29166667  1.0
  Tl  Tl154  1  0.11111111  0.55555556  0.29166667  1.0
  Tl  Tl155  1  0.11111111  0.88888889  0.29166667  1.0
  Tl  Tl156  1  0.44444444  0.22222222  0.29166667  1.0
  Tl  Tl157  1  0.44444444  0.55555556  0.29166667  1.0
  Tl  Tl158  1  0.44444444  0.88888889  0.29166667  1.0
  Tl  Tl159  1  0.77777778  0.22222222  0.29166667  1.0
  Tl  Tl160  1  0.77777778  0.55555556  0.29166667  1.0
  Tl  Tl161  1  0.77777778  0.88888889  0.29166667  1.0
  Tl  Tl162  1  0.22222222  0.11111111  0.41071429  1.0
  Tl  Tl163  1  0.22222222  0.44444444  0.41071429  1.0
  Tl  Tl164  1  0.22222222  0.77777778  0.41071429  1.0
  Tl  Tl165  1  0.55555556  0.11111111  0.41071429  1.0
  Tl  Tl166  1  0.55555556  0.44444444  0.41071429  1.0
  Tl  Tl167  1  0.55555556  0.77777778  0.41071429  1.0
  Tl  Tl168  1  0.88888889  0.11111111  0.41071429  1.0
  Tl  Tl169  1  0.88888889  0.44444444  0.41071429  1.0
  Tl  Tl170  1  0.88888889  0.77777778  0.41071429  1.0
  Tl  Tl171  1  0.22222222  0.27777778  0.33928571  1.0
  Tl  Tl172  1  0.22222222  0.61111111  0.33928571  1.0
  Tl  Tl173  1  0.22222222  0.94444444  0.33928571  1.0
  Tl  Tl174  1  0.55555556  0.27777778  0.33928571  1.0
  Tl  Tl175  1  0.55555556  0.61111111  0.33928571  1.0
  Tl  Tl176  1  0.55555556  0.94444444  0.33928571  1.0
  Tl  Tl177  1  0.88888889  0.27777778  0.33928571  1.0
  Tl  Tl178  1  0.88888889  0.61111111  0.33928571  1.0
  Tl  Tl179  1  0.88888889  0.94444444  0.33928571  1.0
  Ni  Ni180  1  0.00000000  0.16666667  0.42261905  1.0
  Ni  Ni181  1  0.00000000  0.50000000  0.42261905  1.0
  Ni  Ni182  1  0.00000000  0.83333333  0.42261905  1.0
  Ni  Ni183  1  0.33333333  0.16666667  0.42261905  1.0
  Ni  Ni184  1  0.33333333  0.50000000  0.42261905  1.0
  Ni  Ni185  1  0.33333333  0.83333333  0.42261905  1.0
  Ni  Ni186  1  0.66666667  0.16666667  0.42261905  1.0
  Ni  Ni187  1  0.66666667  0.50000000  0.42261905  1.0
  Ni  Ni188  1  0.66666667  0.83333333  0.42261905  1.0
  Ni  Ni189  1  0.00000000  0.00000000  0.35119048  1.0
  Ni  Ni190  1  0.00000000  0.33333333  0.35119048  1.0
  Ni  Ni191  1  0.00000000  0.66666667  0.35119048  1.0
  Ni  Ni192  1  0.33333333  0.00000000  0.35119048  1.0
  Ni  Ni193  1  0.33333333  0.33333333  0.35119048  1.0
  Ni  Ni194  1  0.33333333  0.66666667  0.35119048  1.0
  Ni  Ni195  1  0.66666667  0.00000000  0.35119048  1.0
  Ni  Ni196  1  0.66666667  0.33333333  0.35119048  1.0
  Ni  Ni197  1  0.66666667  0.66666667  0.35119048  1.0
  Ni  Ni198  1  0.00000000  0.16666667  0.35119048  1.0
  Ni  Ni199  1  0.00000000  0.50000000  0.35119048  1.0
  Ni  Ni200  1  0.00000000  0.83333333  0.35119048  1.0
  Ni  Ni201  1  0.33333333  0.16666667  0.35119048  1.0
  Ni  Ni202  1  0.33333333  0.50000000  0.35119048  1.0
  Ni  Ni203  1  0.33333333  0.83333333  0.35119048  1.0
  Ni  Ni204  1  0.66666667  0.16666667  0.35119048  1.0
  Ni  Ni205  1  0.66666667  0.50000000  0.35119048  1.0
  Ni  Ni206  1  0.66666667  0.83333333  0.35119048  1.0
  Ni  Ni207  1  0.00000000  0.00000000  0.42261905  1.0
  Ni  Ni208  1  0.00000000  0.33333333  0.42261905  1.0
  Ni  Ni209  1  0.00000000  0.66666667  0.42261905  1.0
  Ni  Ni210  1  0.33333333  0.00000000  0.42261905  1.0
  Ni  Ni211  1  0.33333333  0.33333333  0.42261905  1.0
  Ni  Ni212  1  0.33333333  0.66666667  0.42261905  1.0
  Ni  Ni213  1  0.66666667  0.00000000  0.42261905  1.0
  Ni  Ni214  1  0.66666667  0.33333333  0.42261905  1.0
  Ni  Ni215  1  0.66666667  0.66666667  0.42261905  1.0
