# generated using pymatgen
data_TlNi
_symmetry_space_group_name_H-M   'P 1'
_cell_length_a   12.50779131
_cell_length_b   15.16754100
_cell_length_c   33.35411016
_cell_angle_alpha   90.00000000
_cell_angle_beta   120.00000000
_cell_angle_gamma   90.00000000
_symmetry_Int_Tables_number   1
_chemical_formula_structural   TlNi
_chemical_formula_sum   'Tl54 Ni54'
_cell_volume   5479.93988852
_cell_formula_units_Z   54
loop_
 _symmetry_equiv_pos_site_id
 _symmetry_equiv_pos_as_xyz
  1  'x, y, z'
loop_
 _atom_site_type_symbol
 _atom_site_label
 _atom_site_symmetry_multiplicity
 _atom_site_fract_x
 _atom_site_fract_y
 _atom_site_fract_z
 _atom_site_occupancy
  Tl  Tl0  1  0.11111111  0.25000000  0.06250000  1.0
  Tl  Tl1  1  0.11111111  0.58333333  0.06250000  1.0
  Tl  Tl2  1  0.11111111  0.91666667  0.06250000  1.0
  Tl  Tl3  1  0.44444444  0.25000000  0.06250000  1.0
  Tl  Tl4  1  0.44444444  0.58333333  0.06250000  1.0
  Tl  Tl5  1  0.44444444  0.91666667  0.06250000  1.0
  Tl  Tl6  1  0.77777778  0.25000000  0.06250000  1.0
  Tl  Tl7  1  0.77777778  0.58333333  0.06250000  1.0
  Tl  Tl8  1  0.77777778  0.91666667  0.06250000  1.0
  Tl  Tl9  1  0.22222222  0.08333333  0.02083333  1.0
  Tl  Tl10  1  0.22222222  0.41666667  0.02083333  1.0
  Tl  Tl11  1  0.22222222  0.75000000  0.02083333  1.0
  Tl  Tl12  1  0.55555556  0.08333333  0.02083333  1.0
  Tl  Tl13  1  0.55555556  0.41666667  0.02083333  1.0
  Tl  Tl14  1  0.55555556  0.75000000  0.02083333  1.0
  Tl  Tl15  1  0.88888889  0.08333333  0.02083333  1.0
  Tl  Tl16  1  0.88888889  0.41666667  0.02083333  1.0
  Tl  Tl17  1  0.88888889  0.75000000  0.02083333  1.0
  Ni  Ni18  1  0.00000000  0.16666667  0.10416667  1.0
  Ni  Ni19  1  0.00000000  0.50000000  0.10416667  1.0
  Ni  Ni20  1  0.00000000  0.83333333  0.10416667  1.0
  Ni  Ni21  1  0.33333333  0.16666667  0.10416667  1.0
  Ni  Ni22  1  0.33333333  0.50000000  0.10416667  1.0
  Ni  Ni23  1  0.33333333  0.83333333  0.10416667  1.0
  Ni  Ni24  1  0.66666667  0.16666667  0.10416667  1.0
  Ni  Ni25  1  0.66666667  0.50000000  0.10416667  1.0
  Ni  Ni26  1  0.66666667  0.83333333  0.10416667  1.0
  Ni  Ni27  1  0.00000000  0.00000000  0.10416667  1.0
  Ni  Ni28  1  0.00000000  0.33333333  0.10416667  1.0
  Ni  Ni29  1  0.00000000  0.66666667  0.10416667  1.0
  Ni  Ni30  1  0.33333333  0.00000000  0.10416667  1.0
  Ni  Ni31  1  0.33333333  0.33333333  0.10416667  1.0
  Ni  Ni32  1  0.33333333  0.66666667  0.10416667  1.0
  Ni  Ni33  1  0.66666667  0.00000000  0.10416667  1.0
  Ni  Ni34  1  0.66666667  0.33333333  0.10416667  1.0
  Ni  Ni35  1  0.66666667  0.66666667  0.10416667  1.0
  Tl  Tl36  1  0.11111111  0.25000000  0.18750000  1.0
  Tl  Tl37  1  0.11111111  0.58333333  0.18750000  1.0
  Tl  Tl38  1  0.11111111  0.91666667  0.18750000  1.0
  Tl  Tl39  1  0.44444444  0.25000000  0.18750000  1.0
  Tl  Tl40  1  0.44444444  0.58333333  0.18750000  1.0
  Tl  Tl41  1  0.44444444  0.91666667  0.18750000  1.0
  Tl  Tl42  1  0.77777778  0.25000000  0.18750000  1.0
  Tl  Tl43  1  0.77777778  0.58333333  0.18750000  1.0
  Tl  Tl44  1  0.77777778  0.91666667  0.18750000  1.0
  Tl  Tl45  1  0.22222222  0.08333333  0.14583333  1.0
  Tl  Tl46  1  0.22222222  0.41666667  0.14583333  1.0
  Tl  Tl47  1  0.22222222  0.75000000  0.14583333  1.0
  Tl  Tl48  1  0.55555556  0.08333333  0.14583333  1.0
  Tl  Tl49  1  0.55555556  0.41666667  0.14583333  1.0
  Tl  Tl50  1  0.55555556  0.75000000  0.14583333  1.0
  Tl  Tl51  1  0.88888889  0.08333333  0.14583333  1.0
  Tl  Tl52  1  0.88888889  0.41666667  0.14583333  1.0
  Tl  Tl53  1  0.88888889  0.75000000  0.14583333  1.0
  Ni  Ni54  1  0.00000000  0.16666667  0.22916667  1.0
  Ni  Ni55  1  0.00000000  0.50000000  0.22916667  1.0
  Ni  Ni56  1  0.00000000  0.83333333  0.22916667  1.0
  Ni  Ni57  1  0.33333333  0.16666667  0.22916667  1.0
  Ni  Ni58  1  0.33333333  0.50000000  0.22916667  1.0
  Ni  Ni59  1  0.33333333  0.83333333  0.22916667  1.0
  Ni  Ni60  1  0.66666667  0.16666667  0.22916667  1.0
  Ni  Ni61  1  0.66666667  0.50000000  0.22916667  1.0
  Ni  Ni62  1  0.66666667  0.83333333  0.22916667  1.0
  Ni  Ni63  1  0.00000000  0.00000000  0.22916667  1.0
  Ni  Ni64  1  0.00000000  0.33333333  0.22916667  1.0
  Ni  Ni65  1  0.00000000  0.66666667  0.22916667  1.0
  Ni  Ni66  1  0.33333333  0.00000000  0.22916667  1.0
  Ni  Ni67  1  0.33333333  0.33333333  0.22916667  1.0
  Ni  Ni68  1  0.33333333  0.66666667  0.22916667  1.0
  Ni  Ni69  1  0.66666667  0.00000000  0.22916667  1.0
  Ni  Ni70  1  0.66666667  0.33333333  0.22916667  1.0
  Ni  Ni71  1  0.66666667  0.66666667  0.22916667  1.0
  Tl  Tl72  1  0.11111111  0.25000000  0.31250000  1.0
  Tl  Tl73  1  0.11111111  0.58333333  0.31250000  1.0
  Tl  Tl74  1  0.11111111  0.91666667  0.31250000  1.0
  Tl  Tl75  1  0.44444444  0.25000000  0.31250000  1.0
  Tl  Tl76  1  0.44444444  0.58333333  0.31250000  1.0
  Tl  Tl77  1  0.44444444  0.91666667  0.31250000  1.0
  Tl  Tl78  1  0.77777778  0.25000000  0.31250000  1.0
  Tl  Tl79  1  0.77777778  0.58333333  0.31250000  1.0
  Tl  Tl80  1  0.77777778  0.91666667  0.31250000  1.0
  Tl  Tl81  1  0.22222222  0.08333333  0.27083333  1.0
  Tl  Tl82  1  0.22222222  0.41666667  0.27083333  1.0
  Tl  Tl83  1  0.22222222  0.75000000  0.27083333  1.0
  Tl  Tl84  1  0.55555556  0.08333333  0.27083333  1.0
  Tl  Tl85  1  0.55555556  0.41666667  0.27083333  1.0
  Tl  Tl86  1  0.55555556  0.75000000  0.27083333  1.0
  Tl  Tl87  1  0.88888889  0.08333333  0.27083333  1.0
  Tl  Tl88  1  0.88888889  0.41666667  0.27083333  1.0
  Tl  Tl89  1  0.88888889  0.75000000  0.27083333  1.0
  Ni  Ni90  1  0.00000000  0.16666667  0.35416667  1.0
  Ni  Ni91  1  0.00000000  0.50000000  0.35416667  1.0
  Ni  Ni92  1  0.00000000  0.83333333  0.35416667  1.0
  Ni  Ni93  1  0.33333333  0.16666667  0.35416667  1.0
  Ni  Ni94  1  0.33333333  0.50000000  0.35416667  1.0
  Ni  Ni95  1  0.33333333  0.83333333  0.35416667  1.0
  Ni  Ni96  1  0.66666667  0.16666667  0.35416667  1.0
  Ni  Ni97  1  0.66666667  0.50000000  0.35416667  1.0
  Ni  Ni98  1  0.66666667  0.83333333  0.35416667  1.0
  Ni  Ni99  1  0.00000000  0.00000000  0.35416667  1.0
  Ni  Ni100  1  0.00000000  0.33333333  0.35416667  1.0
  Ni  Ni101  1  0.00000000  0.66666667  0.35416667  1.0
  Ni  Ni102  1  0.33333333  0.00000000  0.35416667  1.0
  Ni  Ni103  1  0.33333333  0.33333333  0.35416667  1.0
  Ni  Ni104  1  0.33333333  0.66666667  0.35416667  1.0
  Ni  Ni105  1  0.66666667  0.00000000  0.35416667  1.0
  Ni  Ni106  1  0.66666667  0.33333333  0.35416667  1.0
  Ni  Ni107  1  0.66666667  0.66666667  0.35416667  1.0
