# generated using pymatgen
data_TlNi
_symmetry_space_group_name_H-M   'P 1'
_cell_length_a   12.50779131
_cell_length_b   12.50779131
_cell_length_c   25.27923500
_cell_angle_alpha   90.00000000
_cell_angle_beta   90.00000000
_cell_angle_gamma   120.00000000
_symmetry_Int_Tables_number   1
_chemical_formula_structural   TlNi
_chemical_formula_sum   'Tl36 Ni36'
_cell_volume   3424.96243032
_cell_formula_units_Z   36
loop_
 _symmetry_equiv_pos_site_id
 _symmetry_equiv_pos_as_xyz
  1  'x, y, z'
loop_
 _atom_site_type_symbol
 _atom_site_label
 _atom_site_symmetry_multiplicity
 _atom_site_fract_x
 _atom_site_fract_y
 _atom_site_fract_z
 _atom_site_occupancy
  Tl  Tl0  1  0.22222222  0.11111111  0.12500000  1.0
  Tl  Tl1  1  0.22222222  0.44444444  0.12500000  1.0
  Tl  Tl2  1  0.22222222  0.77777778  0.12500000  1.0
  Tl  Tl3  1  0.55555556  0.11111111  0.12500000  1.0
  Tl  Tl4  1  0.55555556  0.44444444  0.12500000  1.0
  Tl  Tl5  1  0.55555556  0.77777778  0.12500000  1.0
  Tl  Tl6  1  0.88888889  0.11111111  0.12500000  1.0
  Tl  Tl7  1  0.88888889  0.44444444  0.12500000  1.0
  Tl  Tl8  1  0.88888889  0.77777778  0.12500000  1.0
  Tl  Tl9  1  0.11111111  0.22222222  0.02500000  1.0
  Tl  Tl10  1  0.11111111  0.55555556  0.02500000  1.0
  Tl  Tl11  1  0.11111111  0.88888889  0.02500000  1.0
  Tl  Tl12  1  0.44444444  0.22222222  0.02500000  1.0
  Tl  Tl13  1  0.44444444  0.55555556  0.02500000  1.0
  Tl  Tl14  1  0.44444444  0.88888889  0.02500000  1.0
  Tl  Tl15  1  0.77777778  0.22222222  0.02500000  1.0
  Tl  Tl16  1  0.77777778  0.55555556  0.02500000  1.0
  Tl  Tl17  1  0.77777778  0.88888889  0.02500000  1.0
  Ni  Ni18  1  0.00000000  0.00000000  0.07500000  1.0
  Ni  Ni19  1  0.00000000  0.33333333  0.07500000  1.0
  Ni  Ni20  1  0.00000000  0.66666667  0.07500000  1.0
  Ni  Ni21  1  0.33333333  0.00000000  0.07500000  1.0
  Ni  Ni22  1  0.33333333  0.33333333  0.07500000  1.0
  Ni  Ni23  1  0.33333333  0.66666667  0.07500000  1.0
  Ni  Ni24  1  0.66666667  0.00000000  0.07500000  1.0
  Ni  Ni25  1  0.66666667  0.33333333  0.07500000  1.0
  Ni  Ni26  1  0.66666667  0.66666667  0.07500000  1.0
  Ni  Ni27  1  0.00000000  0.00000000  0.17500000  1.0
  Ni  Ni28  1  0.00000000  0.33333333  0.17500000  1.0
  Ni  Ni29  1  0.00000000  0.66666667  0.17500000  1.0
  Ni  Ni30  1  0.33333333  0.00000000  0.17500000  1.0
  Ni  Ni31  1  0.33333333  0.33333333  0.17500000  1.0
  Ni  Ni32  1  0.33333333  0.66666667  0.17500000  1.0
  Ni  Ni33  1  0.66666667  0.00000000  0.17500000  1.0
  Ni  Ni34  1  0.66666667  0.33333333  0.17500000  1.0
  Ni  Ni35  1  0.66666667  0.66666667  0.17500000  1.0
  Tl  Tl36  1  0.22222222  0.11111111  0.32500000  1.0
  Tl  Tl37  1  0.22222222  0.44444444  0.32500000  1.0
  Tl  Tl38  1  0.22222222  0.77777778  0.32500000  1.0
  Tl  Tl39  1  0.55555556  0.11111111  0.32500000  1.0
  Tl  Tl40  1  0.55555556  0.44444444  0.32500000  1.0
  Tl  Tl41  1  0.55555556  0.77777778  0.32500000  1.0
  Tl  Tl42  1  0.88888889  0.11111111  0.32500000  1.0
  Tl  Tl43  1  0.88888889  0.44444444  0.32500000  1.0
  Tl  Tl44  1  0.88888889  0.77777778  0.32500000  1.0
  Tl  Tl45  1  0.11111111  0.22222222  0.22500000  1.0
  Tl  Tl46  1  0.11111111  0.55555556  0.22500000  1.0
  Tl  Tl47  1  0.11111111  0.88888889  0.22500000  1.0
  Tl  Tl48  1  0.44444444  0.22222222  0.22500000  1.0
  Tl  Tl49  1  0.44444444  0.55555556  0.22500000  1.0
  Tl  Tl50  1  0.44444444  0.88888889  0.22500000  1.0
  Tl  Tl51  1  0.77777778  0.22222222  0.22500000  1.0
  Tl  Tl52  1  0.77777778  0.55555556  0.22500000  1.0
  Tl  Tl53  1  0.77777778  0.88888889  0.22500000  1.0
  Ni  Ni54  1  0.00000000  0.00000000  0.27500000  1.0
  Ni  Ni55  1  0.00000000  0.33333333  0.27500000  1.0
  Ni  Ni56  1  0.00000000  0.66666667  0.27500000  1.0
  Ni  Ni57  1  0.33333333  0.00000000  0.27500000  1.0
  Ni  Ni58  1  0.33333333  0.33333333  0.27500000  1.0
  Ni  Ni59  1  0.33333333  0.66666667  0.27500000  1.0
  Ni  Ni60  1  0.66666667  0.00000000  0.27500000  1.0
  Ni  Ni61  1  0.66666667  0.33333333  0.27500000  1.0
  Ni  Ni62  1  0.66666667  0.66666667  0.27500000  1.0
  Ni  Ni63  1  0.00000000  0.00000000  0.37500000  1.0
  Ni  Ni64  1  0.00000000  0.33333333  0.37500000  1.0
  Ni  Ni65  1  0.00000000  0.66666667  0.37500000  1.0
  Ni  Ni66  1  0.33333333  0.00000000  0.37500000  1.0
  Ni  Ni67  1  0.33333333  0.33333333  0.37500000  1.0
  Ni  Ni68  1  0.33333333  0.66666667  0.37500000  1.0
  Ni  Ni69  1  0.66666667  0.00000000  0.37500000  1.0
  Ni  Ni70  1  0.66666667  0.33333333  0.37500000  1.0
  Ni  Ni71  1  0.66666667  0.66666667  0.37500000  1.0
