# generated using pymatgen
data_TlNi
_symmetry_space_group_name_H-M   'P 1'
_cell_length_a   19.65958147
_cell_length_b   26.44596057
_cell_length_c   26.52337165
_cell_angle_alpha   96.52920771
_cell_angle_beta   90.16895817
_cell_angle_gamma   90.50836412
_symmetry_Int_Tables_number   1
_chemical_formula_structural   TlNi
_chemical_formula_sum   'Tl144 Ni144'
_cell_volume   13699.84972130
_cell_formula_units_Z   144
loop_
 _symmetry_equiv_pos_site_id
 _symmetry_equiv_pos_as_xyz
  1  'x, y, z'
loop_
 _atom_site_type_symbol
 _atom_site_label
 _atom_site_symmetry_multiplicity
 _atom_site_fract_x
 _atom_site_fract_y
 _atom_site_fract_z
 _atom_site_occupancy
  Ni  Ni0  1  0.24027778  0.26458333  0.98541667  1.0
  Ni  Ni1  1  0.24027778  0.59791667  0.98541667  1.0
  Ni  Ni2  1  0.24027778  0.93125000  0.98541667  1.0
  Ni  Ni3  1  0.57361111  0.26458333  0.98541667  1.0
  Ni  Ni4  1  0.57361111  0.59791667  0.98541667  1.0
  Ni  Ni5  1  0.57361111  0.93125000  0.98541667  1.0
  Ni  Ni6  1  0.90694444  0.26458333  0.98541667  1.0
  Ni  Ni7  1  0.90694444  0.59791667  0.98541667  1.0
  Ni  Ni8  1  0.90694444  0.93125000  0.98541667  1.0
  Ni  Ni9  1  0.04027778  0.14791667  0.93541667  1.0
  Ni  Ni10  1  0.04027778  0.48125000  0.93541667  1.0
  Ni  Ni11  1  0.04027778  0.81458333  0.93541667  1.0
  Ni  Ni12  1  0.37361111  0.14791667  0.93541667  1.0
  Ni  Ni13  1  0.37361111  0.48125000  0.93541667  1.0
  Ni  Ni14  1  0.37361111  0.81458333  0.93541667  1.0
  Ni  Ni15  1  0.70694444  0.14791667  0.93541667  1.0
  Ni  Ni16  1  0.70694444  0.48125000  0.93541667  1.0
  Ni  Ni17  1  0.70694444  0.81458333  0.93541667  1.0
  Ni  Ni18  1  0.27361111  0.08958333  0.91041667  1.0
  Ni  Ni19  1  0.27361111  0.42291667  0.91041667  1.0
  Ni  Ni20  1  0.27361111  0.75625000  0.91041667  1.0
  Ni  Ni21  1  0.60694444  0.08958333  0.91041667  1.0
  Ni  Ni22  1  0.60694444  0.42291667  0.91041667  1.0
  Ni  Ni23  1  0.60694444  0.75625000  0.91041667  1.0
  Ni  Ni24  1  0.94027778  0.08958333  0.91041667  1.0
  Ni  Ni25  1  0.94027778  0.42291667  0.91041667  1.0
  Ni  Ni26  1  0.94027778  0.75625000  0.91041667  1.0
  Ni  Ni27  1  0.14027778  0.20625000  0.96041667  1.0
  Ni  Ni28  1  0.14027778  0.53958333  0.96041667  1.0
  Ni  Ni29  1  0.14027778  0.87291667  0.96041667  1.0
  Ni  Ni30  1  0.47361111  0.20625000  0.96041667  1.0
  Ni  Ni31  1  0.47361111  0.53958333  0.96041667  1.0
  Ni  Ni32  1  0.47361111  0.87291667  0.96041667  1.0
  Ni  Ni33  1  0.80694444  0.20625000  0.96041667  1.0
  Ni  Ni34  1  0.80694444  0.53958333  0.96041667  1.0
  Ni  Ni35  1  0.80694444  0.87291667  0.96041667  1.0
  Ni  Ni36  1  0.17361111  0.03125000  0.88541667  1.0
  Ni  Ni37  1  0.17361111  0.36458333  0.88541667  1.0
  Ni  Ni38  1  0.17361111  0.69791667  0.88541667  1.0
  Ni  Ni39  1  0.50694444  0.03125000  0.88541667  1.0
  Ni  Ni40  1  0.50694444  0.36458333  0.88541667  1.0
  Ni  Ni41  1  0.50694444  0.69791667  0.88541667  1.0
  Ni  Ni42  1  0.84027778  0.03125000  0.88541667  1.0
  Ni  Ni43  1  0.84027778  0.36458333  0.88541667  1.0
  Ni  Ni44  1  0.84027778  0.69791667  0.88541667  1.0
  Ni  Ni45  1  0.30694444  0.24791667  0.83541667  1.0
  Ni  Ni46  1  0.30694444  0.58125000  0.83541667  1.0
  Ni  Ni47  1  0.30694444  0.91458333  0.83541667  1.0
  Ni  Ni48  1  0.64027778  0.24791667  0.83541667  1.0
  Ni  Ni49  1  0.64027778  0.58125000  0.83541667  1.0
  Ni  Ni50  1  0.64027778  0.91458333  0.83541667  1.0
  Ni  Ni51  1  0.97361111  0.24791667  0.83541667  1.0
  Ni  Ni52  1  0.97361111  0.58125000  0.83541667  1.0
  Ni  Ni53  1  0.97361111  0.91458333  0.83541667  1.0
  Ni  Ni54  1  0.20694444  0.18958333  0.81041667  1.0
  Ni  Ni55  1  0.20694444  0.52291667  0.81041667  1.0
  Ni  Ni56  1  0.20694444  0.85625000  0.81041667  1.0
  Ni  Ni57  1  0.54027778  0.18958333  0.81041667  1.0
  Ni  Ni58  1  0.54027778  0.52291667  0.81041667  1.0
  Ni  Ni59  1  0.54027778  0.85625000  0.81041667  1.0
  Ni  Ni60  1  0.87361111  0.18958333  0.81041667  1.0
  Ni  Ni61  1  0.87361111  0.52291667  0.81041667  1.0
  Ni  Ni62  1  0.87361111  0.85625000  0.81041667  1.0
  Ni  Ni63  1  0.07361111  0.30625000  0.86041667  1.0
  Ni  Ni64  1  0.07361111  0.63958333  0.86041667  1.0
  Ni  Ni65  1  0.07361111  0.97291667  0.86041667  1.0
  Ni  Ni66  1  0.40694444  0.30625000  0.86041667  1.0
  Ni  Ni67  1  0.40694444  0.63958333  0.86041667  1.0
  Ni  Ni68  1  0.40694444  0.97291667  0.86041667  1.0
  Ni  Ni69  1  0.74027778  0.30625000  0.86041667  1.0
  Ni  Ni70  1  0.74027778  0.63958333  0.86041667  1.0
  Ni  Ni71  1  0.74027778  0.97291667  0.86041667  1.0
  Ni  Ni72  1  0.10694444  0.13125000  0.78541667  1.0
  Ni  Ni73  1  0.10694444  0.46458333  0.78541667  1.0
  Ni  Ni74  1  0.10694444  0.79791667  0.78541667  1.0
  Ni  Ni75  1  0.44027778  0.13125000  0.78541667  1.0
  Ni  Ni76  1  0.44027778  0.46458333  0.78541667  1.0
  Ni  Ni77  1  0.44027778  0.79791667  0.78541667  1.0
  Ni  Ni78  1  0.77361111  0.13125000  0.78541667  1.0
  Ni  Ni79  1  0.77361111  0.46458333  0.78541667  1.0
  Ni  Ni80  1  0.77361111  0.79791667  0.78541667  1.0
  Ni  Ni81  1  0.24027778  0.01458333  0.73541667  1.0
  Ni  Ni82  1  0.24027778  0.34791667  0.73541667  1.0
  Ni  Ni83  1  0.24027778  0.68125000  0.73541667  1.0
  Ni  Ni84  1  0.57361111  0.01458333  0.73541667  1.0
  Ni  Ni85  1  0.57361111  0.34791667  0.73541667  1.0
  Ni  Ni86  1  0.57361111  0.68125000  0.73541667  1.0
  Ni  Ni87  1  0.90694444  0.01458333  0.73541667  1.0
  Ni  Ni88  1  0.90694444  0.34791667  0.73541667  1.0
  Ni  Ni89  1  0.90694444  0.68125000  0.73541667  1.0
  Ni  Ni90  1  0.14027778  0.28958333  0.71041667  1.0
  Ni  Ni91  1  0.14027778  0.62291667  0.71041667  1.0
  Ni  Ni92  1  0.14027778  0.95625000  0.71041667  1.0
  Ni  Ni93  1  0.47361111  0.28958333  0.71041667  1.0
  Ni  Ni94  1  0.47361111  0.62291667  0.71041667  1.0
  Ni  Ni95  1  0.47361111  0.95625000  0.71041667  1.0
  Ni  Ni96  1  0.80694444  0.28958333  0.71041667  1.0
  Ni  Ni97  1  0.80694444  0.62291667  0.71041667  1.0
  Ni  Ni98  1  0.80694444  0.95625000  0.71041667  1.0
  Ni  Ni99  1  0.00694444  0.07291667  0.76041667  1.0
  Ni  Ni100  1  0.00694444  0.40625000  0.76041667  1.0
  Ni  Ni101  1  0.00694444  0.73958333  0.76041667  1.0
  Ni  Ni102  1  0.34027778  0.07291667  0.76041667  1.0
  Ni  Ni103  1  0.34027778  0.40625000  0.76041667  1.0
  Ni  Ni104  1  0.34027778  0.73958333  0.76041667  1.0
  Ni  Ni105  1  0.67361111  0.07291667  0.76041667  1.0
  Ni  Ni106  1  0.67361111  0.40625000  0.76041667  1.0
  Ni  Ni107  1  0.67361111  0.73958333  0.76041667  1.0
  Ni  Ni108  1  0.04027778  0.23125000  0.68541667  1.0
  Ni  Ni109  1  0.04027778  0.56458333  0.68541667  1.0
  Ni  Ni110  1  0.04027778  0.89791667  0.68541667  1.0
  Ni  Ni111  1  0.37361111  0.23125000  0.68541667  1.0
  Ni  Ni112  1  0.37361111  0.56458333  0.68541667  1.0
  Ni  Ni113  1  0.37361111  0.89791667  0.68541667  1.0
  Ni  Ni114  1  0.70694444  0.23125000  0.68541667  1.0
  Ni  Ni115  1  0.70694444  0.56458333  0.68541667  1.0
  Ni  Ni116  1  0.70694444  0.89791667  0.68541667  1.0
  Ni  Ni117  1  0.17361111  0.11458333  0.63541667  1.0
  Ni  Ni118  1  0.17361111  0.44791667  0.63541667  1.0
  Ni  Ni119  1  0.17361111  0.78125000  0.63541667  1.0
  Ni  Ni120  1  0.50694444  0.11458333  0.63541667  1.0
  Ni  Ni121  1  0.50694444  0.44791667  0.63541667  1.0
  Ni  Ni122  1  0.50694444  0.78125000  0.63541667  1.0
  Ni  Ni123  1  0.84027778  0.11458333  0.63541667  1.0
  Ni  Ni124  1  0.84027778  0.44791667  0.63541667  1.0
  Ni  Ni125  1  0.84027778  0.78125000  0.63541667  1.0
  Ni  Ni126  1  0.07361111  0.05625000  0.61041667  1.0
  Ni  Ni127  1  0.07361111  0.38958333  0.61041667  1.0
  Ni  Ni128  1  0.07361111  0.72291667  0.61041667  1.0
  Ni  Ni129  1  0.40694444  0.05625000  0.61041667  1.0
  Ni  Ni130  1  0.40694444  0.38958333  0.61041667  1.0
  Ni  Ni131  1  0.40694444  0.72291667  0.61041667  1.0
  Ni  Ni132  1  0.74027778  0.05625000  0.61041667  1.0
  Ni  Ni133  1  0.74027778  0.38958333  0.61041667  1.0
  Ni  Ni134  1  0.74027778  0.72291667  0.61041667  1.0
  Ni  Ni135  1  0.27361111  0.17291667  0.66041667  1.0
  Ni  Ni136  1  0.27361111  0.50625000  0.66041667  1.0
  Ni  Ni137  1  0.27361111  0.83958333  0.66041667  1.0
  Ni  Ni138  1  0.60694444  0.17291667  0.66041667  1.0
  Ni  Ni139  1  0.60694444  0.50625000  0.66041667  1.0
  Ni  Ni140  1  0.60694444  0.83958333  0.66041667  1.0
  Ni  Ni141  1  0.94027778  0.17291667  0.66041667  1.0
  Ni  Ni142  1  0.94027778  0.50625000  0.66041667  1.0
  Ni  Ni143  1  0.94027778  0.83958333  0.66041667  1.0
  Tl  Tl144  1  0.25694444  0.16319444  0.98958333  1.0
  Tl  Tl145  1  0.25694444  0.49652778  0.98958333  1.0
  Tl  Tl146  1  0.25694444  0.82986111  0.98958333  1.0
  Tl  Tl147  1  0.59027778  0.16319444  0.98958333  1.0
  Tl  Tl148  1  0.59027778  0.49652778  0.98958333  1.0
  Tl  Tl149  1  0.59027778  0.82986111  0.98958333  1.0
  Tl  Tl150  1  0.92361111  0.16319444  0.98958333  1.0
  Tl  Tl151  1  0.92361111  0.49652778  0.98958333  1.0
  Tl  Tl152  1  0.92361111  0.82986111  0.98958333  1.0
  Tl  Tl153  1  0.05694444  0.04652778  0.93958333  1.0
  Tl  Tl154  1  0.05694444  0.37986111  0.93958333  1.0
  Tl  Tl155  1  0.05694444  0.71319444  0.93958333  1.0
  Tl  Tl156  1  0.39027778  0.04652778  0.93958333  1.0
  Tl  Tl157  1  0.39027778  0.37986111  0.93958333  1.0
  Tl  Tl158  1  0.39027778  0.71319444  0.93958333  1.0
  Tl  Tl159  1  0.72361111  0.04652778  0.93958333  1.0
  Tl  Tl160  1  0.72361111  0.37986111  0.93958333  1.0
  Tl  Tl161  1  0.72361111  0.71319444  0.93958333  1.0
  Tl  Tl162  1  0.02361111  0.24930556  0.93125000  1.0
  Tl  Tl163  1  0.02361111  0.58263889  0.93125000  1.0
  Tl  Tl164  1  0.02361111  0.91597222  0.93125000  1.0
  Tl  Tl165  1  0.35694444  0.24930556  0.93125000  1.0
  Tl  Tl166  1  0.35694444  0.58263889  0.93125000  1.0
  Tl  Tl167  1  0.35694444  0.91597222  0.93125000  1.0
  Tl  Tl168  1  0.69027778  0.24930556  0.93125000  1.0
  Tl  Tl169  1  0.69027778  0.58263889  0.93125000  1.0
  Tl  Tl170  1  0.69027778  0.91597222  0.93125000  1.0
  Tl  Tl171  1  0.22361111  0.03263889  0.98125000  1.0
  Tl  Tl172  1  0.22361111  0.36597222  0.98125000  1.0
  Tl  Tl173  1  0.22361111  0.69930556  0.98125000  1.0
  Tl  Tl174  1  0.55694444  0.03263889  0.98125000  1.0
  Tl  Tl175  1  0.55694444  0.36597222  0.98125000  1.0
  Tl  Tl176  1  0.55694444  0.69930556  0.98125000  1.0
  Tl  Tl177  1  0.89027778  0.03263889  0.98125000  1.0
  Tl  Tl178  1  0.89027778  0.36597222  0.98125000  1.0
  Tl  Tl179  1  0.89027778  0.69930556  0.98125000  1.0
  Tl  Tl180  1  0.19027778  0.26319444  0.88958333  1.0
  Tl  Tl181  1  0.19027778  0.59652778  0.88958333  1.0
  Tl  Tl182  1  0.19027778  0.92986111  0.88958333  1.0
  Tl  Tl183  1  0.52361111  0.26319444  0.88958333  1.0
  Tl  Tl184  1  0.52361111  0.59652778  0.88958333  1.0
  Tl  Tl185  1  0.52361111  0.92986111  0.88958333  1.0
  Tl  Tl186  1  0.85694444  0.26319444  0.88958333  1.0
  Tl  Tl187  1  0.85694444  0.59652778  0.88958333  1.0
  Tl  Tl188  1  0.85694444  0.92986111  0.88958333  1.0
  Tl  Tl189  1  0.32361111  0.14652778  0.83958333  1.0
  Tl  Tl190  1  0.32361111  0.47986111  0.83958333  1.0
  Tl  Tl191  1  0.32361111  0.81319444  0.83958333  1.0
  Tl  Tl192  1  0.65694444  0.14652778  0.83958333  1.0
  Tl  Tl193  1  0.65694444  0.47986111  0.83958333  1.0
  Tl  Tl194  1  0.65694444  0.81319444  0.83958333  1.0
  Tl  Tl195  1  0.99027778  0.14652778  0.83958333  1.0
  Tl  Tl196  1  0.99027778  0.47986111  0.83958333  1.0
  Tl  Tl197  1  0.99027778  0.81319444  0.83958333  1.0
  Tl  Tl198  1  0.29027778  0.01597222  0.83125000  1.0
  Tl  Tl199  1  0.29027778  0.34930556  0.83125000  1.0
  Tl  Tl200  1  0.29027778  0.68263889  0.83125000  1.0
  Tl  Tl201  1  0.62361111  0.01597222  0.83125000  1.0
  Tl  Tl202  1  0.62361111  0.34930556  0.83125000  1.0
  Tl  Tl203  1  0.62361111  0.68263889  0.83125000  1.0
  Tl  Tl204  1  0.95694444  0.01597222  0.83125000  1.0
  Tl  Tl205  1  0.95694444  0.34930556  0.83125000  1.0
  Tl  Tl206  1  0.95694444  0.68263889  0.83125000  1.0
  Tl  Tl207  1  0.15694444  0.13263889  0.88125000  1.0
  Tl  Tl208  1  0.15694444  0.46597222  0.88125000  1.0
  Tl  Tl209  1  0.15694444  0.79930556  0.88125000  1.0
  Tl  Tl210  1  0.49027778  0.13263889  0.88125000  1.0
  Tl  Tl211  1  0.49027778  0.46597222  0.88125000  1.0
  Tl  Tl212  1  0.49027778  0.79930556  0.88125000  1.0
  Tl  Tl213  1  0.82361111  0.13263889  0.88125000  1.0
  Tl  Tl214  1  0.82361111  0.46597222  0.88125000  1.0
  Tl  Tl215  1  0.82361111  0.79930556  0.88125000  1.0
  Tl  Tl216  1  0.12361111  0.02986111  0.78958333  1.0
  Tl  Tl217  1  0.12361111  0.36319444  0.78958333  1.0
  Tl  Tl218  1  0.12361111  0.69652778  0.78958333  1.0
  Tl  Tl219  1  0.45694444  0.02986111  0.78958333  1.0
  Tl  Tl220  1  0.45694444  0.36319444  0.78958333  1.0
  Tl  Tl221  1  0.45694444  0.69652778  0.78958333  1.0
  Tl  Tl222  1  0.79027778  0.02986111  0.78958333  1.0
  Tl  Tl223  1  0.79027778  0.36319444  0.78958333  1.0
  Tl  Tl224  1  0.79027778  0.69652778  0.78958333  1.0
  Tl  Tl225  1  0.25694444  0.24652778  0.73958333  1.0
  Tl  Tl226  1  0.25694444  0.57986111  0.73958333  1.0
  Tl  Tl227  1  0.25694444  0.91319444  0.73958333  1.0
  Tl  Tl228  1  0.59027778  0.24652778  0.73958333  1.0
  Tl  Tl229  1  0.59027778  0.57986111  0.73958333  1.0
  Tl  Tl230  1  0.59027778  0.91319444  0.73958333  1.0
  Tl  Tl231  1  0.92361111  0.24652778  0.73958333  1.0
  Tl  Tl232  1  0.92361111  0.57986111  0.73958333  1.0
  Tl  Tl233  1  0.92361111  0.91319444  0.73958333  1.0
  Tl  Tl234  1  0.22361111  0.11597222  0.73125000  1.0
  Tl  Tl235  1  0.22361111  0.44930556  0.73125000  1.0
  Tl  Tl236  1  0.22361111  0.78263889  0.73125000  1.0
  Tl  Tl237  1  0.55694444  0.11597222  0.73125000  1.0
  Tl  Tl238  1  0.55694444  0.44930556  0.73125000  1.0
  Tl  Tl239  1  0.55694444  0.78263889  0.73125000  1.0
  Tl  Tl240  1  0.89027778  0.11597222  0.73125000  1.0
  Tl  Tl241  1  0.89027778  0.44930556  0.73125000  1.0
  Tl  Tl242  1  0.89027778  0.78263889  0.73125000  1.0
  Tl  Tl243  1  0.09027778  0.23263889  0.78125000  1.0
  Tl  Tl244  1  0.09027778  0.56597222  0.78125000  1.0
  Tl  Tl245  1  0.09027778  0.89930556  0.78125000  1.0
  Tl  Tl246  1  0.42361111  0.23263889  0.78125000  1.0
  Tl  Tl247  1  0.42361111  0.56597222  0.78125000  1.0
  Tl  Tl248  1  0.42361111  0.89930556  0.78125000  1.0
  Tl  Tl249  1  0.75694444  0.23263889  0.78125000  1.0
  Tl  Tl250  1  0.75694444  0.56597222  0.78125000  1.0
  Tl  Tl251  1  0.75694444  0.89930556  0.78125000  1.0
  Tl  Tl252  1  0.05694444  0.12986111  0.68958333  1.0
  Tl  Tl253  1  0.05694444  0.46319444  0.68958333  1.0
  Tl  Tl254  1  0.05694444  0.79652778  0.68958333  1.0
  Tl  Tl255  1  0.39027778  0.12986111  0.68958333  1.0
  Tl  Tl256  1  0.39027778  0.46319444  0.68958333  1.0
  Tl  Tl257  1  0.39027778  0.79652778  0.68958333  1.0
  Tl  Tl258  1  0.72361111  0.12986111  0.68958333  1.0
  Tl  Tl259  1  0.72361111  0.46319444  0.68958333  1.0
  Tl  Tl260  1  0.72361111  0.79652778  0.68958333  1.0
  Tl  Tl261  1  0.19027778  0.01319444  0.63958333  1.0
  Tl  Tl262  1  0.19027778  0.34652778  0.63958333  1.0
  Tl  Tl263  1  0.19027778  0.67986111  0.63958333  1.0
  Tl  Tl264  1  0.52361111  0.01319444  0.63958333  1.0
  Tl  Tl265  1  0.52361111  0.34652778  0.63958333  1.0
  Tl  Tl266  1  0.52361111  0.67986111  0.63958333  1.0
  Tl  Tl267  1  0.85694444  0.01319444  0.63958333  1.0
  Tl  Tl268  1  0.85694444  0.34652778  0.63958333  1.0
  Tl  Tl269  1  0.85694444  0.67986111  0.63958333  1.0
  Tl  Tl270  1  0.15694444  0.21597222  0.63125000  1.0
  Tl  Tl271  1  0.15694444  0.54930556  0.63125000  1.0
  Tl  Tl272  1  0.15694444  0.88263889  0.63125000  1.0
  Tl  Tl273  1  0.49027778  0.21597222  0.63125000  1.0
  Tl  Tl274  1  0.49027778  0.54930556  0.63125000  1.0
  Tl  Tl275  1  0.49027778  0.88263889  0.63125000  1.0
  Tl  Tl276  1  0.82361111  0.21597222  0.63125000  1.0
  Tl  Tl277  1  0.82361111  0.54930556  0.63125000  1.0
  Tl  Tl278  1  0.82361111  0.88263889  0.63125000  1.0
  Tl  Tl279  1  0.02361111  0.33263889  0.68125000  1.0
  Tl  Tl280  1  0.02361111  0.66597222  0.68125000  1.0
  Tl  Tl281  1  0.02361111  0.99930556  0.68125000  1.0
  Tl  Tl282  1  0.35694444  0.33263889  0.68125000  1.0
  Tl  Tl283  1  0.35694444  0.66597222  0.68125000  1.0
  Tl  Tl284  1  0.35694444  0.99930556  0.68125000  1.0
  Tl  Tl285  1  0.69027778  0.33263889  0.68125000  1.0
  Tl  Tl286  1  0.69027778  0.66597222  0.68125000  1.0
  Tl  Tl287  1  0.69027778  0.99930556  0.68125000  1.0
