# generated using pymatgen
data_TlNi
_symmetry_space_group_name_H-M   'P 1'
_cell_length_a   21.66413004
_cell_length_b   32.81252876
_cell_length_c   54.20042901
_cell_angle_alpha   112.40738228
_cell_angle_beta   150.00000000
_cell_angle_gamma   70.72395374
_symmetry_Int_Tables_number   1
_chemical_formula_structural   TlNi
_chemical_formula_sum   'Tl180 Ni180'
_cell_volume   17809.80463769
_cell_formula_units_Z   180
loop_
 _symmetry_equiv_pos_site_id
 _symmetry_equiv_pos_as_xyz
  1  'x, y, z'
loop_
 _atom_site_type_symbol
 _atom_site_label
 _atom_site_symmetry_multiplicity
 _atom_site_fract_x
 _atom_site_fract_y
 _atom_site_fract_z
 _atom_site_occupancy
  Tl  Tl0  1  0.11111111  0.12500000  0.02403846  1.0
  Tl  Tl1  1  0.11111111  0.45833333  0.02403846  1.0
  Tl  Tl2  1  0.11111111  0.79166667  0.02403846  1.0
  Tl  Tl3  1  0.44444444  0.12500000  0.02403846  1.0
  Tl  Tl4  1  0.44444444  0.45833333  0.02403846  1.0
  Tl  Tl5  1  0.44444444  0.79166667  0.02403846  1.0
  Tl  Tl6  1  0.77777778  0.12500000  0.02403846  1.0
  Tl  Tl7  1  0.77777778  0.45833333  0.02403846  1.0
  Tl  Tl8  1  0.77777778  0.79166667  0.02403846  1.0
  Tl  Tl9  1  0.11111111  0.29166667  0.06250000  1.0
  Tl  Tl10  1  0.11111111  0.62500000  0.06250000  1.0
  Tl  Tl11  1  0.11111111  0.95833333  0.06250000  1.0
  Tl  Tl12  1  0.44444444  0.29166667  0.06250000  1.0
  Tl  Tl13  1  0.44444444  0.62500000  0.06250000  1.0
  Tl  Tl14  1  0.44444444  0.95833333  0.06250000  1.0
  Tl  Tl15  1  0.77777778  0.29166667  0.06250000  1.0
  Tl  Tl16  1  0.77777778  0.62500000  0.06250000  1.0
  Tl  Tl17  1  0.77777778  0.95833333  0.06250000  1.0
  Tl  Tl18  1  0.22222222  0.04166667  0.00480769  1.0
  Tl  Tl19  1  0.22222222  0.37500000  0.00480769  1.0
  Tl  Tl20  1  0.22222222  0.70833333  0.00480769  1.0
  Tl  Tl21  1  0.55555556  0.04166667  0.00480769  1.0
  Tl  Tl22  1  0.55555556  0.37500000  0.00480769  1.0
  Tl  Tl23  1  0.55555556  0.70833333  0.00480769  1.0
  Tl  Tl24  1  0.88888889  0.04166667  0.00480769  1.0
  Tl  Tl25  1  0.88888889  0.37500000  0.00480769  1.0
  Tl  Tl26  1  0.88888889  0.70833333  0.00480769  1.0
  Tl  Tl27  1  0.22222222  0.20833333  0.04326923  1.0
  Tl  Tl28  1  0.22222222  0.54166667  0.04326923  1.0
  Tl  Tl29  1  0.22222222  0.87500000  0.04326923  1.0
  Tl  Tl30  1  0.55555556  0.20833333  0.04326923  1.0
  Tl  Tl31  1  0.55555556  0.54166667  0.04326923  1.0
  Tl  Tl32  1  0.55555556  0.87500000  0.04326923  1.0
  Tl  Tl33  1  0.88888889  0.20833333  0.04326923  1.0
  Tl  Tl34  1  0.88888889  0.54166667  0.04326923  1.0
  Tl  Tl35  1  0.88888889  0.87500000  0.04326923  1.0
  Ni  Ni36  1  0.00000000  0.08333333  0.01442308  1.0
  Ni  Ni37  1  0.00000000  0.41666667  0.01442308  1.0
  Ni  Ni38  1  0.00000000  0.75000000  0.01442308  1.0
  Ni  Ni39  1  0.33333333  0.08333333  0.01442308  1.0
  Ni  Ni40  1  0.33333333  0.41666667  0.01442308  1.0
  Ni  Ni41  1  0.33333333  0.75000000  0.01442308  1.0
  Ni  Ni42  1  0.66666667  0.08333333  0.01442308  1.0
  Ni  Ni43  1  0.66666667  0.41666667  0.01442308  1.0
  Ni  Ni44  1  0.66666667  0.75000000  0.01442308  1.0
  Ni  Ni45  1  0.00000000  0.25000000  0.05288462  1.0
  Ni  Ni46  1  0.00000000  0.58333333  0.05288462  1.0
  Ni  Ni47  1  0.00000000  0.91666667  0.05288462  1.0
  Ni  Ni48  1  0.33333333  0.25000000  0.05288462  1.0
  Ni  Ni49  1  0.33333333  0.58333333  0.05288462  1.0
  Ni  Ni50  1  0.33333333  0.91666667  0.05288462  1.0
  Ni  Ni51  1  0.66666667  0.25000000  0.05288462  1.0
  Ni  Ni52  1  0.66666667  0.58333333  0.05288462  1.0
  Ni  Ni53  1  0.66666667  0.91666667  0.05288462  1.0
  Ni  Ni54  1  0.00000000  0.00000000  0.07211538  1.0
  Ni  Ni55  1  0.00000000  0.33333333  0.07211538  1.0
  Ni  Ni56  1  0.00000000  0.66666667  0.07211538  1.0
  Ni  Ni57  1  0.33333333  0.00000000  0.07211538  1.0
  Ni  Ni58  1  0.33333333  0.33333333  0.07211538  1.0
  Ni  Ni59  1  0.33333333  0.66666667  0.07211538  1.0
  Ni  Ni60  1  0.66666667  0.00000000  0.07211538  1.0
  Ni  Ni61  1  0.66666667  0.33333333  0.07211538  1.0
  Ni  Ni62  1  0.66666667  0.66666667  0.07211538  1.0
  Ni  Ni63  1  0.00000000  0.16666667  0.03365385  1.0
  Ni  Ni64  1  0.00000000  0.50000000  0.03365385  1.0
  Ni  Ni65  1  0.00000000  0.83333333  0.03365385  1.0
  Ni  Ni66  1  0.33333333  0.16666667  0.03365385  1.0
  Ni  Ni67  1  0.33333333  0.50000000  0.03365385  1.0
  Ni  Ni68  1  0.33333333  0.83333333  0.03365385  1.0
  Ni  Ni69  1  0.66666667  0.16666667  0.03365385  1.0
  Ni  Ni70  1  0.66666667  0.50000000  0.03365385  1.0
  Ni  Ni71  1  0.66666667  0.83333333  0.03365385  1.0
  Tl  Tl72  1  0.11111111  0.12500000  0.10096154  1.0
  Tl  Tl73  1  0.11111111  0.45833333  0.10096154  1.0
  Tl  Tl74  1  0.11111111  0.79166667  0.10096154  1.0
  Tl  Tl75  1  0.44444444  0.12500000  0.10096154  1.0
  Tl  Tl76  1  0.44444444  0.45833333  0.10096154  1.0
  Tl  Tl77  1  0.44444444  0.79166667  0.10096154  1.0
  Tl  Tl78  1  0.77777778  0.12500000  0.10096154  1.0
  Tl  Tl79  1  0.77777778  0.45833333  0.10096154  1.0
  Tl  Tl80  1  0.77777778  0.79166667  0.10096154  1.0
  Tl  Tl81  1  0.11111111  0.29166667  0.13942308  1.0
  Tl  Tl82  1  0.11111111  0.62500000  0.13942308  1.0
  Tl  Tl83  1  0.11111111  0.95833333  0.13942308  1.0
  Tl  Tl84  1  0.44444444  0.29166667  0.13942308  1.0
  Tl  Tl85  1  0.44444444  0.62500000  0.13942308  1.0
  Tl  Tl86  1  0.44444444  0.95833333  0.13942308  1.0
  Tl  Tl87  1  0.77777778  0.29166667  0.13942308  1.0
  Tl  Tl88  1  0.77777778  0.62500000  0.13942308  1.0
  Tl  Tl89  1  0.77777778  0.95833333  0.13942308  1.0
  Tl  Tl90  1  0.22222222  0.04166667  0.08173077  1.0
  Tl  Tl91  1  0.22222222  0.37500000  0.08173077  1.0
  Tl  Tl92  1  0.22222222  0.70833333  0.08173077  1.0
  Tl  Tl93  1  0.55555556  0.04166667  0.08173077  1.0
  Tl  Tl94  1  0.55555556  0.37500000  0.08173077  1.0
  Tl  Tl95  1  0.55555556  0.70833333  0.08173077  1.0
  Tl  Tl96  1  0.88888889  0.04166667  0.08173077  1.0
  Tl  Tl97  1  0.88888889  0.37500000  0.08173077  1.0
  Tl  Tl98  1  0.88888889  0.70833333  0.08173077  1.0
  Tl  Tl99  1  0.22222222  0.20833333  0.12019231  1.0
  Tl  Tl100  1  0.22222222  0.54166667  0.12019231  1.0
  Tl  Tl101  1  0.22222222  0.87500000  0.12019231  1.0
  Tl  Tl102  1  0.55555556  0.20833333  0.12019231  1.0
  Tl  Tl103  1  0.55555556  0.54166667  0.12019231  1.0
  Tl  Tl104  1  0.55555556  0.87500000  0.12019231  1.0
  Tl  Tl105  1  0.88888889  0.20833333  0.12019231  1.0
  Tl  Tl106  1  0.88888889  0.54166667  0.12019231  1.0
  Tl  Tl107  1  0.88888889  0.87500000  0.12019231  1.0
  Ni  Ni108  1  0.00000000  0.08333333  0.09134615  1.0
  Ni  Ni109  1  0.00000000  0.41666667  0.09134615  1.0
  Ni  Ni110  1  0.00000000  0.75000000  0.09134615  1.0
  Ni  Ni111  1  0.33333333  0.08333333  0.09134615  1.0
  Ni  Ni112  1  0.33333333  0.41666667  0.09134615  1.0
  Ni  Ni113  1  0.33333333  0.75000000  0.09134615  1.0
  Ni  Ni114  1  0.66666667  0.08333333  0.09134615  1.0
  Ni  Ni115  1  0.66666667  0.41666667  0.09134615  1.0
  Ni  Ni116  1  0.66666667  0.75000000  0.09134615  1.0
  Ni  Ni117  1  0.00000000  0.25000000  0.12980769  1.0
  Ni  Ni118  1  0.00000000  0.58333333  0.12980769  1.0
  Ni  Ni119  1  0.00000000  0.91666667  0.12980769  1.0
  Ni  Ni120  1  0.33333333  0.25000000  0.12980769  1.0
  Ni  Ni121  1  0.33333333  0.58333333  0.12980769  1.0
  Ni  Ni122  1  0.33333333  0.91666667  0.12980769  1.0
  Ni  Ni123  1  0.66666667  0.25000000  0.12980769  1.0
  Ni  Ni124  1  0.66666667  0.58333333  0.12980769  1.0
  Ni  Ni125  1  0.66666667  0.91666667  0.12980769  1.0
  Ni  Ni126  1  0.00000000  0.00000000  0.14903846  1.0
  Ni  Ni127  1  0.00000000  0.33333333  0.14903846  1.0
  Ni  Ni128  1  0.00000000  0.66666667  0.14903846  1.0
  Ni  Ni129  1  0.33333333  0.00000000  0.14903846  1.0
  Ni  Ni130  1  0.33333333  0.33333333  0.14903846  1.0
  Ni  Ni131  1  0.33333333  0.66666667  0.14903846  1.0
  Ni  Ni132  1  0.66666667  0.00000000  0.14903846  1.0
  Ni  Ni133  1  0.66666667  0.33333333  0.14903846  1.0
  Ni  Ni134  1  0.66666667  0.66666667  0.14903846  1.0
  Ni  Ni135  1  0.00000000  0.16666667  0.11057692  1.0
  Ni  Ni136  1  0.00000000  0.50000000  0.11057692  1.0
  Ni  Ni137  1  0.00000000  0.83333333  0.11057692  1.0
  Ni  Ni138  1  0.33333333  0.16666667  0.11057692  1.0
  Ni  Ni139  1  0.33333333  0.50000000  0.11057692  1.0
  Ni  Ni140  1  0.33333333  0.83333333  0.11057692  1.0
  Ni  Ni141  1  0.66666667  0.16666667  0.11057692  1.0
  Ni  Ni142  1  0.66666667  0.50000000  0.11057692  1.0
  Ni  Ni143  1  0.66666667  0.83333333  0.11057692  1.0
  Tl  Tl144  1  0.11111111  0.12500000  0.17788462  1.0
  Tl  Tl145  1  0.11111111  0.45833333  0.17788462  1.0
  Tl  Tl146  1  0.11111111  0.79166667  0.17788462  1.0
  Tl  Tl147  1  0.44444444  0.12500000  0.17788462  1.0
  Tl  Tl148  1  0.44444444  0.45833333  0.17788462  1.0
  Tl  Tl149  1  0.44444444  0.79166667  0.17788462  1.0
  Tl  Tl150  1  0.77777778  0.12500000  0.17788462  1.0
  Tl  Tl151  1  0.77777778  0.45833333  0.17788462  1.0
  Tl  Tl152  1  0.77777778  0.79166667  0.17788462  1.0
  Tl  Tl153  1  0.11111111  0.29166667  0.21634615  1.0
  Tl  Tl154  1  0.11111111  0.62500000  0.21634615  1.0
  Tl  Tl155  1  0.11111111  0.95833333  0.21634615  1.0
  Tl  Tl156  1  0.44444444  0.29166667  0.21634615  1.0
  Tl  Tl157  1  0.44444444  0.62500000  0.21634615  1.0
  Tl  Tl158  1  0.44444444  0.95833333  0.21634615  1.0
  Tl  Tl159  1  0.77777778  0.29166667  0.21634615  1.0
  Tl  Tl160  1  0.77777778  0.62500000  0.21634615  1.0
  Tl  Tl161  1  0.77777778  0.95833333  0.21634615  1.0
  Tl  Tl162  1  0.22222222  0.04166667  0.15865385  1.0
  Tl  Tl163  1  0.22222222  0.37500000  0.15865385  1.0
  Tl  Tl164  1  0.22222222  0.70833333  0.15865385  1.0
  Tl  Tl165  1  0.55555556  0.04166667  0.15865385  1.0
  Tl  Tl166  1  0.55555556  0.37500000  0.15865385  1.0
  Tl  Tl167  1  0.55555556  0.70833333  0.15865385  1.0
  Tl  Tl168  1  0.88888889  0.04166667  0.15865385  1.0
  Tl  Tl169  1  0.88888889  0.37500000  0.15865385  1.0
  Tl  Tl170  1  0.88888889  0.70833333  0.15865385  1.0
  Tl  Tl171  1  0.22222222  0.20833333  0.19711538  1.0
  Tl  Tl172  1  0.22222222  0.54166667  0.19711538  1.0
  Tl  Tl173  1  0.22222222  0.87500000  0.19711538  1.0
  Tl  Tl174  1  0.55555556  0.20833333  0.19711538  1.0
  Tl  Tl175  1  0.55555556  0.54166667  0.19711538  1.0
  Tl  Tl176  1  0.55555556  0.87500000  0.19711538  1.0
  Tl  Tl177  1  0.88888889  0.20833333  0.19711538  1.0
  Tl  Tl178  1  0.88888889  0.54166667  0.19711538  1.0
  Tl  Tl179  1  0.88888889  0.87500000  0.19711538  1.0
  Ni  Ni180  1  0.00000000  0.08333333  0.16826923  1.0
  Ni  Ni181  1  0.00000000  0.41666667  0.16826923  1.0
  Ni  Ni182  1  0.00000000  0.75000000  0.16826923  1.0
  Ni  Ni183  1  0.33333333  0.08333333  0.16826923  1.0
  Ni  Ni184  1  0.33333333  0.41666667  0.16826923  1.0
  Ni  Ni185  1  0.33333333  0.75000000  0.16826923  1.0
  Ni  Ni186  1  0.66666667  0.08333333  0.16826923  1.0
  Ni  Ni187  1  0.66666667  0.41666667  0.16826923  1.0
  Ni  Ni188  1  0.66666667  0.75000000  0.16826923  1.0
  Ni  Ni189  1  0.00000000  0.25000000  0.20673077  1.0
  Ni  Ni190  1  0.00000000  0.58333333  0.20673077  1.0
  Ni  Ni191  1  0.00000000  0.91666667  0.20673077  1.0
  Ni  Ni192  1  0.33333333  0.25000000  0.20673077  1.0
  Ni  Ni193  1  0.33333333  0.58333333  0.20673077  1.0
  Ni  Ni194  1  0.33333333  0.91666667  0.20673077  1.0
  Ni  Ni195  1  0.66666667  0.25000000  0.20673077  1.0
  Ni  Ni196  1  0.66666667  0.58333333  0.20673077  1.0
  Ni  Ni197  1  0.66666667  0.91666667  0.20673077  1.0
  Ni  Ni198  1  0.00000000  0.00000000  0.22596154  1.0
  Ni  Ni199  1  0.00000000  0.33333333  0.22596154  1.0
  Ni  Ni200  1  0.00000000  0.66666667  0.22596154  1.0
  Ni  Ni201  1  0.33333333  0.00000000  0.22596154  1.0
  Ni  Ni202  1  0.33333333  0.33333333  0.22596154  1.0
  Ni  Ni203  1  0.33333333  0.66666667  0.22596154  1.0
  Ni  Ni204  1  0.66666667  0.00000000  0.22596154  1.0
  Ni  Ni205  1  0.66666667  0.33333333  0.22596154  1.0
  Ni  Ni206  1  0.66666667  0.66666667  0.22596154  1.0
  Ni  Ni207  1  0.00000000  0.16666667  0.18750000  1.0
  Ni  Ni208  1  0.00000000  0.50000000  0.18750000  1.0
  Ni  Ni209  1  0.00000000  0.83333333  0.18750000  1.0
  Ni  Ni210  1  0.33333333  0.16666667  0.18750000  1.0
  Ni  Ni211  1  0.33333333  0.50000000  0.18750000  1.0
  Ni  Ni212  1  0.33333333  0.83333333  0.18750000  1.0
  Ni  Ni213  1  0.66666667  0.16666667  0.18750000  1.0
  Ni  Ni214  1  0.66666667  0.50000000  0.18750000  1.0
  Ni  Ni215  1  0.66666667  0.83333333  0.18750000  1.0
  Tl  Tl216  1  0.11111111  0.12500000  0.25480769  1.0
  Tl  Tl217  1  0.11111111  0.45833333  0.25480769  1.0
  Tl  Tl218  1  0.11111111  0.79166667  0.25480769  1.0
  Tl  Tl219  1  0.44444444  0.12500000  0.25480769  1.0
  Tl  Tl220  1  0.44444444  0.45833333  0.25480769  1.0
  Tl  Tl221  1  0.44444444  0.79166667  0.25480769  1.0
  Tl  Tl222  1  0.77777778  0.12500000  0.25480769  1.0
  Tl  Tl223  1  0.77777778  0.45833333  0.25480769  1.0
  Tl  Tl224  1  0.77777778  0.79166667  0.25480769  1.0
  Tl  Tl225  1  0.11111111  0.29166667  0.29326923  1.0
  Tl  Tl226  1  0.11111111  0.62500000  0.29326923  1.0
  Tl  Tl227  1  0.11111111  0.95833333  0.29326923  1.0
  Tl  Tl228  1  0.44444444  0.29166667  0.29326923  1.0
  Tl  Tl229  1  0.44444444  0.62500000  0.29326923  1.0
  Tl  Tl230  1  0.44444444  0.95833333  0.29326923  1.0
  Tl  Tl231  1  0.77777778  0.29166667  0.29326923  1.0
  Tl  Tl232  1  0.77777778  0.62500000  0.29326923  1.0
  Tl  Tl233  1  0.77777778  0.95833333  0.29326923  1.0
  Tl  Tl234  1  0.22222222  0.04166667  0.23557692  1.0
  Tl  Tl235  1  0.22222222  0.37500000  0.23557692  1.0
  Tl  Tl236  1  0.22222222  0.70833333  0.23557692  1.0
  Tl  Tl237  1  0.55555556  0.04166667  0.23557692  1.0
  Tl  Tl238  1  0.55555556  0.37500000  0.23557692  1.0
  Tl  Tl239  1  0.55555556  0.70833333  0.23557692  1.0
  Tl  Tl240  1  0.88888889  0.04166667  0.23557692  1.0
  Tl  Tl241  1  0.88888889  0.37500000  0.23557692  1.0
  Tl  Tl242  1  0.88888889  0.70833333  0.23557692  1.0
  Tl  Tl243  1  0.22222222  0.20833333  0.27403846  1.0
  Tl  Tl244  1  0.22222222  0.54166667  0.27403846  1.0
  Tl  Tl245  1  0.22222222  0.87500000  0.27403846  1.0
  Tl  Tl246  1  0.55555556  0.20833333  0.27403846  1.0
  Tl  Tl247  1  0.55555556  0.54166667  0.27403846  1.0
  Tl  Tl248  1  0.55555556  0.87500000  0.27403846  1.0
  Tl  Tl249  1  0.88888889  0.20833333  0.27403846  1.0
  Tl  Tl250  1  0.88888889  0.54166667  0.27403846  1.0
  Tl  Tl251  1  0.88888889  0.87500000  0.27403846  1.0
  Ni  Ni252  1  0.00000000  0.08333333  0.24519231  1.0
  Ni  Ni253  1  0.00000000  0.41666667  0.24519231  1.0
  Ni  Ni254  1  0.00000000  0.75000000  0.24519231  1.0
  Ni  Ni255  1  0.33333333  0.08333333  0.24519231  1.0
  Ni  Ni256  1  0.33333333  0.41666667  0.24519231  1.0
  Ni  Ni257  1  0.33333333  0.75000000  0.24519231  1.0
  Ni  Ni258  1  0.66666667  0.08333333  0.24519231  1.0
  Ni  Ni259  1  0.66666667  0.41666667  0.24519231  1.0
  Ni  Ni260  1  0.66666667  0.75000000  0.24519231  1.0
  Ni  Ni261  1  0.00000000  0.25000000  0.28365385  1.0
  Ni  Ni262  1  0.00000000  0.58333333  0.28365385  1.0
  Ni  Ni263  1  0.00000000  0.91666667  0.28365385  1.0
  Ni  Ni264  1  0.33333333  0.25000000  0.28365385  1.0
  Ni  Ni265  1  0.33333333  0.58333333  0.28365385  1.0
  Ni  Ni266  1  0.33333333  0.91666667  0.28365385  1.0
  Ni  Ni267  1  0.66666667  0.25000000  0.28365385  1.0
  Ni  Ni268  1  0.66666667  0.58333333  0.28365385  1.0
  Ni  Ni269  1  0.66666667  0.91666667  0.28365385  1.0
  Ni  Ni270  1  0.00000000  0.00000000  0.30288462  1.0
  Ni  Ni271  1  0.00000000  0.33333333  0.30288462  1.0
  Ni  Ni272  1  0.00000000  0.66666667  0.30288462  1.0
  Ni  Ni273  1  0.33333333  0.00000000  0.30288462  1.0
  Ni  Ni274  1  0.33333333  0.33333333  0.30288462  1.0
  Ni  Ni275  1  0.33333333  0.66666667  0.30288462  1.0
  Ni  Ni276  1  0.66666667  0.00000000  0.30288462  1.0
  Ni  Ni277  1  0.66666667  0.33333333  0.30288462  1.0
  Ni  Ni278  1  0.66666667  0.66666667  0.30288462  1.0
  Ni  Ni279  1  0.00000000  0.16666667  0.26442308  1.0
  Ni  Ni280  1  0.00000000  0.50000000  0.26442308  1.0
  Ni  Ni281  1  0.00000000  0.83333333  0.26442308  1.0
  Ni  Ni282  1  0.33333333  0.16666667  0.26442308  1.0
  Ni  Ni283  1  0.33333333  0.50000000  0.26442308  1.0
  Ni  Ni284  1  0.33333333  0.83333333  0.26442308  1.0
  Ni  Ni285  1  0.66666667  0.16666667  0.26442308  1.0
  Ni  Ni286  1  0.66666667  0.50000000  0.26442308  1.0
  Ni  Ni287  1  0.66666667  0.83333333  0.26442308  1.0
  Tl  Tl288  1  0.11111111  0.12500000  0.33173077  1.0
  Tl  Tl289  1  0.11111111  0.45833333  0.33173077  1.0
  Tl  Tl290  1  0.11111111  0.79166667  0.33173077  1.0
  Tl  Tl291  1  0.44444444  0.12500000  0.33173077  1.0
  Tl  Tl292  1  0.44444444  0.45833333  0.33173077  1.0
  Tl  Tl293  1  0.44444444  0.79166667  0.33173077  1.0
  Tl  Tl294  1  0.77777778  0.12500000  0.33173077  1.0
  Tl  Tl295  1  0.77777778  0.45833333  0.33173077  1.0
  Tl  Tl296  1  0.77777778  0.79166667  0.33173077  1.0
  Tl  Tl297  1  0.11111111  0.29166667  0.37019231  1.0
  Tl  Tl298  1  0.11111111  0.62500000  0.37019231  1.0
  Tl  Tl299  1  0.11111111  0.95833333  0.37019231  1.0
  Tl  Tl300  1  0.44444444  0.29166667  0.37019231  1.0
  Tl  Tl301  1  0.44444444  0.62500000  0.37019231  1.0
  Tl  Tl302  1  0.44444444  0.95833333  0.37019231  1.0
  Tl  Tl303  1  0.77777778  0.29166667  0.37019231  1.0
  Tl  Tl304  1  0.77777778  0.62500000  0.37019231  1.0
  Tl  Tl305  1  0.77777778  0.95833333  0.37019231  1.0
  Tl  Tl306  1  0.22222222  0.04166667  0.31250000  1.0
  Tl  Tl307  1  0.22222222  0.37500000  0.31250000  1.0
  Tl  Tl308  1  0.22222222  0.70833333  0.31250000  1.0
  Tl  Tl309  1  0.55555556  0.04166667  0.31250000  1.0
  Tl  Tl310  1  0.55555556  0.37500000  0.31250000  1.0
  Tl  Tl311  1  0.55555556  0.70833333  0.31250000  1.0
  Tl  Tl312  1  0.88888889  0.04166667  0.31250000  1.0
  Tl  Tl313  1  0.88888889  0.37500000  0.31250000  1.0
  Tl  Tl314  1  0.88888889  0.70833333  0.31250000  1.0
  Tl  Tl315  1  0.22222222  0.20833333  0.35096154  1.0
  Tl  Tl316  1  0.22222222  0.54166667  0.35096154  1.0
  Tl  Tl317  1  0.22222222  0.87500000  0.35096154  1.0
  Tl  Tl318  1  0.55555556  0.20833333  0.35096154  1.0
  Tl  Tl319  1  0.55555556  0.54166667  0.35096154  1.0
  Tl  Tl320  1  0.55555556  0.87500000  0.35096154  1.0
  Tl  Tl321  1  0.88888889  0.20833333  0.35096154  1.0
  Tl  Tl322  1  0.88888889  0.54166667  0.35096154  1.0
  Tl  Tl323  1  0.88888889  0.87500000  0.35096154  1.0
  Ni  Ni324  1  0.00000000  0.08333333  0.32211538  1.0
  Ni  Ni325  1  0.00000000  0.41666667  0.32211538  1.0
  Ni  Ni326  1  0.00000000  0.75000000  0.32211538  1.0
  Ni  Ni327  1  0.33333333  0.08333333  0.32211538  1.0
  Ni  Ni328  1  0.33333333  0.41666667  0.32211538  1.0
  Ni  Ni329  1  0.33333333  0.75000000  0.32211538  1.0
  Ni  Ni330  1  0.66666667  0.08333333  0.32211538  1.0
  Ni  Ni331  1  0.66666667  0.41666667  0.32211538  1.0
  Ni  Ni332  1  0.66666667  0.75000000  0.32211538  1.0
  Ni  Ni333  1  0.00000000  0.25000000  0.36057692  1.0
  Ni  Ni334  1  0.00000000  0.58333333  0.36057692  1.0
  Ni  Ni335  1  0.00000000  0.91666667  0.36057692  1.0
  Ni  Ni336  1  0.33333333  0.25000000  0.36057692  1.0
  Ni  Ni337  1  0.33333333  0.58333333  0.36057692  1.0
  Ni  Ni338  1  0.33333333  0.91666667  0.36057692  1.0
  Ni  Ni339  1  0.66666667  0.25000000  0.36057692  1.0
  Ni  Ni340  1  0.66666667  0.58333333  0.36057692  1.0
  Ni  Ni341  1  0.66666667  0.91666667  0.36057692  1.0
  Ni  Ni342  1  0.00000000  0.00000000  0.37980769  1.0
  Ni  Ni343  1  0.00000000  0.33333333  0.37980769  1.0
  Ni  Ni344  1  0.00000000  0.66666667  0.37980769  1.0
  Ni  Ni345  1  0.33333333  0.00000000  0.37980769  1.0
  Ni  Ni346  1  0.33333333  0.33333333  0.37980769  1.0
  Ni  Ni347  1  0.33333333  0.66666667  0.37980769  1.0
  Ni  Ni348  1  0.66666667  0.00000000  0.37980769  1.0
  Ni  Ni349  1  0.66666667  0.33333333  0.37980769  1.0
  Ni  Ni350  1  0.66666667  0.66666667  0.37980769  1.0
  Ni  Ni351  1  0.00000000  0.16666667  0.34134615  1.0
  Ni  Ni352  1  0.00000000  0.50000000  0.34134615  1.0
  Ni  Ni353  1  0.00000000  0.83333333  0.34134615  1.0
  Ni  Ni354  1  0.33333333  0.16666667  0.34134615  1.0
  Ni  Ni355  1  0.33333333  0.50000000  0.34134615  1.0
  Ni  Ni356  1  0.33333333  0.83333333  0.34134615  1.0
  Ni  Ni357  1  0.66666667  0.16666667  0.34134615  1.0
  Ni  Ni358  1  0.66666667  0.50000000  0.34134615  1.0
  Ni  Ni359  1  0.66666667  0.83333333  0.34134615  1.0
