# generated using pymatgen
data_TlNi
_symmetry_space_group_name_H-M   'P 1'
_cell_length_a   21.66413004
_cell_length_b   19.65958147
_cell_length_c   58.36969278
_cell_angle_alpha   129.51042413
_cell_angle_beta   150.00000000
_cell_angle_gamma   56.56562827
_symmetry_Int_Tables_number   1
_chemical_formula_structural   TlNi
_chemical_formula_sum   'Tl108 Ni108'
_cell_volume   9589.89480491
_cell_formula_units_Z   108
loop_
 _symmetry_equiv_pos_site_id
 _symmetry_equiv_pos_as_xyz
  1  'x, y, z'
loop_
 _atom_site_type_symbol
 _atom_site_label
 _atom_site_symmetry_multiplicity
 _atom_site_fract_x
 _atom_site_fract_y
 _atom_site_fract_z
 _atom_site_occupancy
  Tl  Tl0  1  0.11111111  0.25000000  0.04464286  1.0
  Tl  Tl1  1  0.11111111  0.58333333  0.04464286  1.0
  Tl  Tl2  1  0.11111111  0.91666667  0.04464286  1.0
  Tl  Tl3  1  0.44444444  0.25000000  0.04464286  1.0
  Tl  Tl4  1  0.44444444  0.58333333  0.04464286  1.0
  Tl  Tl5  1  0.44444444  0.91666667  0.04464286  1.0
  Tl  Tl6  1  0.77777778  0.25000000  0.04464286  1.0
  Tl  Tl7  1  0.77777778  0.58333333  0.04464286  1.0
  Tl  Tl8  1  0.77777778  0.91666667  0.04464286  1.0
  Tl  Tl9  1  0.22222222  0.08333333  0.00892857  1.0
  Tl  Tl10  1  0.22222222  0.41666667  0.00892857  1.0
  Tl  Tl11  1  0.22222222  0.75000000  0.00892857  1.0
  Tl  Tl12  1  0.55555556  0.08333333  0.00892857  1.0
  Tl  Tl13  1  0.55555556  0.41666667  0.00892857  1.0
  Tl  Tl14  1  0.55555556  0.75000000  0.00892857  1.0
  Tl  Tl15  1  0.88888889  0.08333333  0.00892857  1.0
  Tl  Tl16  1  0.88888889  0.41666667  0.00892857  1.0
  Tl  Tl17  1  0.88888889  0.75000000  0.00892857  1.0
  Ni  Ni18  1  0.00000000  0.16666667  0.02678571  1.0
  Ni  Ni19  1  0.00000000  0.50000000  0.02678571  1.0
  Ni  Ni20  1  0.00000000  0.83333333  0.02678571  1.0
  Ni  Ni21  1  0.33333333  0.16666667  0.02678571  1.0
  Ni  Ni22  1  0.33333333  0.50000000  0.02678571  1.0
  Ni  Ni23  1  0.33333333  0.83333333  0.02678571  1.0
  Ni  Ni24  1  0.66666667  0.16666667  0.02678571  1.0
  Ni  Ni25  1  0.66666667  0.50000000  0.02678571  1.0
  Ni  Ni26  1  0.66666667  0.83333333  0.02678571  1.0
  Ni  Ni27  1  0.00000000  0.00000000  0.06250000  1.0
  Ni  Ni28  1  0.00000000  0.33333333  0.06250000  1.0
  Ni  Ni29  1  0.00000000  0.66666667  0.06250000  1.0
  Ni  Ni30  1  0.33333333  0.00000000  0.06250000  1.0
  Ni  Ni31  1  0.33333333  0.33333333  0.06250000  1.0
  Ni  Ni32  1  0.33333333  0.66666667  0.06250000  1.0
  Ni  Ni33  1  0.66666667  0.00000000  0.06250000  1.0
  Ni  Ni34  1  0.66666667  0.33333333  0.06250000  1.0
  Ni  Ni35  1  0.66666667  0.66666667  0.06250000  1.0
  Tl  Tl36  1  0.11111111  0.25000000  0.11607143  1.0
  Tl  Tl37  1  0.11111111  0.58333333  0.11607143  1.0
  Tl  Tl38  1  0.11111111  0.91666667  0.11607143  1.0
  Tl  Tl39  1  0.44444444  0.25000000  0.11607143  1.0
  Tl  Tl40  1  0.44444444  0.58333333  0.11607143  1.0
  Tl  Tl41  1  0.44444444  0.91666667  0.11607143  1.0
  Tl  Tl42  1  0.77777778  0.25000000  0.11607143  1.0
  Tl  Tl43  1  0.77777778  0.58333333  0.11607143  1.0
  Tl  Tl44  1  0.77777778  0.91666667  0.11607143  1.0
  Tl  Tl45  1  0.22222222  0.08333333  0.08035714  1.0
  Tl  Tl46  1  0.22222222  0.41666667  0.08035714  1.0
  Tl  Tl47  1  0.22222222  0.75000000  0.08035714  1.0
  Tl  Tl48  1  0.55555556  0.08333333  0.08035714  1.0
  Tl  Tl49  1  0.55555556  0.41666667  0.08035714  1.0
  Tl  Tl50  1  0.55555556  0.75000000  0.08035714  1.0
  Tl  Tl51  1  0.88888889  0.08333333  0.08035714  1.0
  Tl  Tl52  1  0.88888889  0.41666667  0.08035714  1.0
  Tl  Tl53  1  0.88888889  0.75000000  0.08035714  1.0
  Ni  Ni54  1  0.00000000  0.16666667  0.09821429  1.0
  Ni  Ni55  1  0.00000000  0.50000000  0.09821429  1.0
  Ni  Ni56  1  0.00000000  0.83333333  0.09821429  1.0
  Ni  Ni57  1  0.33333333  0.16666667  0.09821429  1.0
  Ni  Ni58  1  0.33333333  0.50000000  0.09821429  1.0
  Ni  Ni59  1  0.33333333  0.83333333  0.09821429  1.0
  Ni  Ni60  1  0.66666667  0.16666667  0.09821429  1.0
  Ni  Ni61  1  0.66666667  0.50000000  0.09821429  1.0
  Ni  Ni62  1  0.66666667  0.83333333  0.09821429  1.0
  Ni  Ni63  1  0.00000000  0.00000000  0.13392857  1.0
  Ni  Ni64  1  0.00000000  0.33333333  0.13392857  1.0
  Ni  Ni65  1  0.00000000  0.66666667  0.13392857  1.0
  Ni  Ni66  1  0.33333333  0.00000000  0.13392857  1.0
  Ni  Ni67  1  0.33333333  0.33333333  0.13392857  1.0
  Ni  Ni68  1  0.33333333  0.66666667  0.13392857  1.0
  Ni  Ni69  1  0.66666667  0.00000000  0.13392857  1.0
  Ni  Ni70  1  0.66666667  0.33333333  0.13392857  1.0
  Ni  Ni71  1  0.66666667  0.66666667  0.13392857  1.0
  Tl  Tl72  1  0.11111111  0.25000000  0.18750000  1.0
  Tl  Tl73  1  0.11111111  0.58333333  0.18750000  1.0
  Tl  Tl74  1  0.11111111  0.91666667  0.18750000  1.0
  Tl  Tl75  1  0.44444444  0.25000000  0.18750000  1.0
  Tl  Tl76  1  0.44444444  0.58333333  0.18750000  1.0
  Tl  Tl77  1  0.44444444  0.91666667  0.18750000  1.0
  Tl  Tl78  1  0.77777778  0.25000000  0.18750000  1.0
  Tl  Tl79  1  0.77777778  0.58333333  0.18750000  1.0
  Tl  Tl80  1  0.77777778  0.91666667  0.18750000  1.0
  Tl  Tl81  1  0.22222222  0.08333333  0.15178571  1.0
  Tl  Tl82  1  0.22222222  0.41666667  0.15178571  1.0
  Tl  Tl83  1  0.22222222  0.75000000  0.15178571  1.0
  Tl  Tl84  1  0.55555556  0.08333333  0.15178571  1.0
  Tl  Tl85  1  0.55555556  0.41666667  0.15178571  1.0
  Tl  Tl86  1  0.55555556  0.75000000  0.15178571  1.0
  Tl  Tl87  1  0.88888889  0.08333333  0.15178571  1.0
  Tl  Tl88  1  0.88888889  0.41666667  0.15178571  1.0
  Tl  Tl89  1  0.88888889  0.75000000  0.15178571  1.0
  Ni  Ni90  1  0.00000000  0.16666667  0.16964286  1.0
  Ni  Ni91  1  0.00000000  0.50000000  0.16964286  1.0
  Ni  Ni92  1  0.00000000  0.83333333  0.16964286  1.0
  Ni  Ni93  1  0.33333333  0.16666667  0.16964286  1.0
  Ni  Ni94  1  0.33333333  0.50000000  0.16964286  1.0
  Ni  Ni95  1  0.33333333  0.83333333  0.16964286  1.0
  Ni  Ni96  1  0.66666667  0.16666667  0.16964286  1.0
  Ni  Ni97  1  0.66666667  0.50000000  0.16964286  1.0
  Ni  Ni98  1  0.66666667  0.83333333  0.16964286  1.0
  Ni  Ni99  1  0.00000000  0.00000000  0.20535714  1.0
  Ni  Ni100  1  0.00000000  0.33333333  0.20535714  1.0
  Ni  Ni101  1  0.00000000  0.66666667  0.20535714  1.0
  Ni  Ni102  1  0.33333333  0.00000000  0.20535714  1.0
  Ni  Ni103  1  0.33333333  0.33333333  0.20535714  1.0
  Ni  Ni104  1  0.33333333  0.66666667  0.20535714  1.0
  Ni  Ni105  1  0.66666667  0.00000000  0.20535714  1.0
  Ni  Ni106  1  0.66666667  0.33333333  0.20535714  1.0
  Ni  Ni107  1  0.66666667  0.66666667  0.20535714  1.0
  Tl  Tl108  1  0.11111111  0.25000000  0.25892857  1.0
  Tl  Tl109  1  0.11111111  0.58333333  0.25892857  1.0
  Tl  Tl110  1  0.11111111  0.91666667  0.25892857  1.0
  Tl  Tl111  1  0.44444444  0.25000000  0.25892857  1.0
  Tl  Tl112  1  0.44444444  0.58333333  0.25892857  1.0
  Tl  Tl113  1  0.44444444  0.91666667  0.25892857  1.0
  Tl  Tl114  1  0.77777778  0.25000000  0.25892857  1.0
  Tl  Tl115  1  0.77777778  0.58333333  0.25892857  1.0
  Tl  Tl116  1  0.77777778  0.91666667  0.25892857  1.0
  Tl  Tl117  1  0.22222222  0.08333333  0.22321429  1.0
  Tl  Tl118  1  0.22222222  0.41666667  0.22321429  1.0
  Tl  Tl119  1  0.22222222  0.75000000  0.22321429  1.0
  Tl  Tl120  1  0.55555556  0.08333333  0.22321429  1.0
  Tl  Tl121  1  0.55555556  0.41666667  0.22321429  1.0
  Tl  Tl122  1  0.55555556  0.75000000  0.22321429  1.0
  Tl  Tl123  1  0.88888889  0.08333333  0.22321429  1.0
  Tl  Tl124  1  0.88888889  0.41666667  0.22321429  1.0
  Tl  Tl125  1  0.88888889  0.75000000  0.22321429  1.0
  Ni  Ni126  1  0.00000000  0.16666667  0.24107143  1.0
  Ni  Ni127  1  0.00000000  0.50000000  0.24107143  1.0
  Ni  Ni128  1  0.00000000  0.83333333  0.24107143  1.0
  Ni  Ni129  1  0.33333333  0.16666667  0.24107143  1.0
  Ni  Ni130  1  0.33333333  0.50000000  0.24107143  1.0
  Ni  Ni131  1  0.33333333  0.83333333  0.24107143  1.0
  Ni  Ni132  1  0.66666667  0.16666667  0.24107143  1.0
  Ni  Ni133  1  0.66666667  0.50000000  0.24107143  1.0
  Ni  Ni134  1  0.66666667  0.83333333  0.24107143  1.0
  Ni  Ni135  1  0.00000000  0.00000000  0.27678571  1.0
  Ni  Ni136  1  0.00000000  0.33333333  0.27678571  1.0
  Ni  Ni137  1  0.00000000  0.66666667  0.27678571  1.0
  Ni  Ni138  1  0.33333333  0.00000000  0.27678571  1.0
  Ni  Ni139  1  0.33333333  0.33333333  0.27678571  1.0
  Ni  Ni140  1  0.33333333  0.66666667  0.27678571  1.0
  Ni  Ni141  1  0.66666667  0.00000000  0.27678571  1.0
  Ni  Ni142  1  0.66666667  0.33333333  0.27678571  1.0
  Ni  Ni143  1  0.66666667  0.66666667  0.27678571  1.0
  Tl  Tl144  1  0.11111111  0.25000000  0.33035714  1.0
  Tl  Tl145  1  0.11111111  0.58333333  0.33035714  1.0
  Tl  Tl146  1  0.11111111  0.91666667  0.33035714  1.0
  Tl  Tl147  1  0.44444444  0.25000000  0.33035714  1.0
  Tl  Tl148  1  0.44444444  0.58333333  0.33035714  1.0
  Tl  Tl149  1  0.44444444  0.91666667  0.33035714  1.0
  Tl  Tl150  1  0.77777778  0.25000000  0.33035714  1.0
  Tl  Tl151  1  0.77777778  0.58333333  0.33035714  1.0
  Tl  Tl152  1  0.77777778  0.91666667  0.33035714  1.0
  Tl  Tl153  1  0.22222222  0.08333333  0.29464286  1.0
  Tl  Tl154  1  0.22222222  0.41666667  0.29464286  1.0
  Tl  Tl155  1  0.22222222  0.75000000  0.29464286  1.0
  Tl  Tl156  1  0.55555556  0.08333333  0.29464286  1.0
  Tl  Tl157  1  0.55555556  0.41666667  0.29464286  1.0
  Tl  Tl158  1  0.55555556  0.75000000  0.29464286  1.0
  Tl  Tl159  1  0.88888889  0.08333333  0.29464286  1.0
  Tl  Tl160  1  0.88888889  0.41666667  0.29464286  1.0
  Tl  Tl161  1  0.88888889  0.75000000  0.29464286  1.0
  Ni  Ni162  1  0.00000000  0.16666667  0.31250000  1.0
  Ni  Ni163  1  0.00000000  0.50000000  0.31250000  1.0
  Ni  Ni164  1  0.00000000  0.83333333  0.31250000  1.0
  Ni  Ni165  1  0.33333333  0.16666667  0.31250000  1.0
  Ni  Ni166  1  0.33333333  0.50000000  0.31250000  1.0
  Ni  Ni167  1  0.33333333  0.83333333  0.31250000  1.0
  Ni  Ni168  1  0.66666667  0.16666667  0.31250000  1.0
  Ni  Ni169  1  0.66666667  0.50000000  0.31250000  1.0
  Ni  Ni170  1  0.66666667  0.83333333  0.31250000  1.0
  Ni  Ni171  1  0.00000000  0.00000000  0.34821429  1.0
  Ni  Ni172  1  0.00000000  0.33333333  0.34821429  1.0
  Ni  Ni173  1  0.00000000  0.66666667  0.34821429  1.0
  Ni  Ni174  1  0.33333333  0.00000000  0.34821429  1.0
  Ni  Ni175  1  0.33333333  0.33333333  0.34821429  1.0
  Ni  Ni176  1  0.33333333  0.66666667  0.34821429  1.0
  Ni  Ni177  1  0.66666667  0.00000000  0.34821429  1.0
  Ni  Ni178  1  0.66666667  0.33333333  0.34821429  1.0
  Ni  Ni179  1  0.66666667  0.66666667  0.34821429  1.0
  Tl  Tl180  1  0.11111111  0.25000000  0.40178571  1.0
  Tl  Tl181  1  0.11111111  0.58333333  0.40178571  1.0
  Tl  Tl182  1  0.11111111  0.91666667  0.40178571  1.0
  Tl  Tl183  1  0.44444444  0.25000000  0.40178571  1.0
  Tl  Tl184  1  0.44444444  0.58333333  0.40178571  1.0
  Tl  Tl185  1  0.44444444  0.91666667  0.40178571  1.0
  Tl  Tl186  1  0.77777778  0.25000000  0.40178571  1.0
  Tl  Tl187  1  0.77777778  0.58333333  0.40178571  1.0
  Tl  Tl188  1  0.77777778  0.91666667  0.40178571  1.0
  Tl  Tl189  1  0.22222222  0.08333333  0.36607143  1.0
  Tl  Tl190  1  0.22222222  0.41666667  0.36607143  1.0
  Tl  Tl191  1  0.22222222  0.75000000  0.36607143  1.0
  Tl  Tl192  1  0.55555556  0.08333333  0.36607143  1.0
  Tl  Tl193  1  0.55555556  0.41666667  0.36607143  1.0
  Tl  Tl194  1  0.55555556  0.75000000  0.36607143  1.0
  Tl  Tl195  1  0.88888889  0.08333333  0.36607143  1.0
  Tl  Tl196  1  0.88888889  0.41666667  0.36607143  1.0
  Tl  Tl197  1  0.88888889  0.75000000  0.36607143  1.0
  Ni  Ni198  1  0.00000000  0.16666667  0.38392857  1.0
  Ni  Ni199  1  0.00000000  0.50000000  0.38392857  1.0
  Ni  Ni200  1  0.00000000  0.83333333  0.38392857  1.0
  Ni  Ni201  1  0.33333333  0.16666667  0.38392857  1.0
  Ni  Ni202  1  0.33333333  0.50000000  0.38392857  1.0
  Ni  Ni203  1  0.33333333  0.83333333  0.38392857  1.0
  Ni  Ni204  1  0.66666667  0.16666667  0.38392857  1.0
  Ni  Ni205  1  0.66666667  0.50000000  0.38392857  1.0
  Ni  Ni206  1  0.66666667  0.83333333  0.38392857  1.0
  Ni  Ni207  1  0.00000000  0.00000000  0.41964286  1.0
  Ni  Ni208  1  0.00000000  0.33333333  0.41964286  1.0
  Ni  Ni209  1  0.00000000  0.66666667  0.41964286  1.0
  Ni  Ni210  1  0.33333333  0.00000000  0.41964286  1.0
  Ni  Ni211  1  0.33333333  0.33333333  0.41964286  1.0
  Ni  Ni212  1  0.33333333  0.66666667  0.41964286  1.0
  Ni  Ni213  1  0.66666667  0.00000000  0.41964286  1.0
  Ni  Ni214  1  0.66666667  0.33333333  0.41964286  1.0
  Ni  Ni215  1  0.66666667  0.66666667  0.41964286  1.0
