# generated using pymatgen
data_V3Ni
_symmetry_space_group_name_H-M   'P 1'
_cell_length_a   14.00897700
_cell_length_b   31.32502487
_cell_length_c   32.68761300
_cell_angle_alpha   116.56505118
_cell_angle_beta   90.00000000
_cell_angle_gamma   90.00000000
_symmetry_Int_Tables_number   1
_chemical_formula_structural   V3Ni
_chemical_formula_sum   'V324 Ni108'
_cell_volume   12829.98201967
_cell_formula_units_Z   108
loop_
 _symmetry_equiv_pos_site_id
 _symmetry_equiv_pos_as_xyz
  1  'x, y, z'
loop_
 _atom_site_type_symbol
 _atom_site_label
 _atom_site_symmetry_multiplicity
 _atom_site_fract_x
 _atom_site_fract_y
 _atom_site_fract_z
 _atom_site_occupancy
  V  V0  1  0.00000000  0.12500000  0.11607143  1.0
  V  V1  1  0.00000000  0.45833333  0.11607143  1.0
  V  V2  1  0.00000000  0.79166667  0.11607143  1.0
  V  V3  1  0.33333333  0.12500000  0.11607143  1.0
  V  V4  1  0.33333333  0.45833333  0.11607143  1.0
  V  V5  1  0.33333333  0.79166667  0.11607143  1.0
  V  V6  1  0.66666667  0.12500000  0.11607143  1.0
  V  V7  1  0.66666667  0.45833333  0.11607143  1.0
  V  V8  1  0.66666667  0.79166667  0.11607143  1.0
  V  V9  1  0.00000000  0.29166667  0.04464286  1.0
  V  V10  1  0.00000000  0.62500000  0.04464286  1.0
  V  V11  1  0.00000000  0.95833333  0.04464286  1.0
  V  V12  1  0.33333333  0.29166667  0.04464286  1.0
  V  V13  1  0.33333333  0.62500000  0.04464286  1.0
  V  V14  1  0.33333333  0.95833333  0.04464286  1.0
  V  V15  1  0.66666667  0.29166667  0.04464286  1.0
  V  V16  1  0.66666667  0.62500000  0.04464286  1.0
  V  V17  1  0.66666667  0.95833333  0.04464286  1.0
  V  V18  1  0.00000000  0.04166667  0.08035714  1.0
  V  V19  1  0.00000000  0.37500000  0.08035714  1.0
  V  V20  1  0.00000000  0.70833333  0.08035714  1.0
  V  V21  1  0.33333333  0.04166667  0.08035714  1.0
  V  V22  1  0.33333333  0.37500000  0.08035714  1.0
  V  V23  1  0.33333333  0.70833333  0.08035714  1.0
  V  V24  1  0.66666667  0.04166667  0.08035714  1.0
  V  V25  1  0.66666667  0.37500000  0.08035714  1.0
  V  V26  1  0.66666667  0.70833333  0.08035714  1.0
  V  V27  1  0.00000000  0.20833333  0.00892857  1.0
  V  V28  1  0.00000000  0.54166667  0.00892857  1.0
  V  V29  1  0.00000000  0.87500000  0.00892857  1.0
  V  V30  1  0.33333333  0.20833333  0.00892857  1.0
  V  V31  1  0.33333333  0.54166667  0.00892857  1.0
  V  V32  1  0.33333333  0.87500000  0.00892857  1.0
  V  V33  1  0.66666667  0.20833333  0.00892857  1.0
  V  V34  1  0.66666667  0.54166667  0.00892857  1.0
  V  V35  1  0.66666667  0.87500000  0.00892857  1.0
  V  V36  1  0.16666667  0.16666667  0.02678571  1.0
  V  V37  1  0.16666667  0.50000000  0.02678571  1.0
  V  V38  1  0.16666667  0.83333333  0.02678571  1.0
  V  V39  1  0.50000000  0.16666667  0.02678571  1.0
  V  V40  1  0.50000000  0.50000000  0.02678571  1.0
  V  V41  1  0.50000000  0.83333333  0.02678571  1.0
  V  V42  1  0.83333333  0.16666667  0.02678571  1.0
  V  V43  1  0.83333333  0.50000000  0.02678571  1.0
  V  V44  1  0.83333333  0.83333333  0.02678571  1.0
  V  V45  1  0.16666667  0.00000000  0.09821429  1.0
  V  V46  1  0.16666667  0.33333333  0.09821429  1.0
  V  V47  1  0.16666667  0.66666667  0.09821429  1.0
  V  V48  1  0.50000000  0.00000000  0.09821429  1.0
  V  V49  1  0.50000000  0.33333333  0.09821429  1.0
  V  V50  1  0.50000000  0.66666667  0.09821429  1.0
  V  V51  1  0.83333333  0.00000000  0.09821429  1.0
  V  V52  1  0.83333333  0.33333333  0.09821429  1.0
  V  V53  1  0.83333333  0.66666667  0.09821429  1.0
  V  V54  1  0.16666667  0.16666667  0.09821429  1.0
  V  V55  1  0.16666667  0.50000000  0.09821429  1.0
  V  V56  1  0.16666667  0.83333333  0.09821429  1.0
  V  V57  1  0.50000000  0.16666667  0.09821429  1.0
  V  V58  1  0.50000000  0.50000000  0.09821429  1.0
  V  V59  1  0.50000000  0.83333333  0.09821429  1.0
  V  V60  1  0.83333333  0.16666667  0.09821429  1.0
  V  V61  1  0.83333333  0.50000000  0.09821429  1.0
  V  V62  1  0.83333333  0.83333333  0.09821429  1.0
  V  V63  1  0.16666667  0.00000000  0.02678571  1.0
  V  V64  1  0.16666667  0.33333333  0.02678571  1.0
  V  V65  1  0.16666667  0.66666667  0.02678571  1.0
  V  V66  1  0.50000000  0.00000000  0.02678571  1.0
  V  V67  1  0.50000000  0.33333333  0.02678571  1.0
  V  V68  1  0.50000000  0.66666667  0.02678571  1.0
  V  V69  1  0.83333333  0.00000000  0.02678571  1.0
  V  V70  1  0.83333333  0.33333333  0.02678571  1.0
  V  V71  1  0.83333333  0.66666667  0.02678571  1.0
  V  V72  1  0.25000000  0.08333333  0.02678571  1.0
  V  V73  1  0.25000000  0.41666667  0.02678571  1.0
  V  V74  1  0.25000000  0.75000000  0.02678571  1.0
  V  V75  1  0.58333333  0.08333333  0.02678571  1.0
  V  V76  1  0.58333333  0.41666667  0.02678571  1.0
  V  V77  1  0.58333333  0.75000000  0.02678571  1.0
  V  V78  1  0.91666667  0.08333333  0.02678571  1.0
  V  V79  1  0.91666667  0.41666667  0.02678571  1.0
  V  V80  1  0.91666667  0.75000000  0.02678571  1.0
  V  V81  1  0.25000000  0.25000000  0.09821429  1.0
  V  V82  1  0.25000000  0.58333333  0.09821429  1.0
  V  V83  1  0.25000000  0.91666667  0.09821429  1.0
  V  V84  1  0.58333333  0.25000000  0.09821429  1.0
  V  V85  1  0.58333333  0.58333333  0.09821429  1.0
  V  V86  1  0.58333333  0.91666667  0.09821429  1.0
  V  V87  1  0.91666667  0.25000000  0.09821429  1.0
  V  V88  1  0.91666667  0.58333333  0.09821429  1.0
  V  V89  1  0.91666667  0.91666667  0.09821429  1.0
  V  V90  1  0.08333333  0.08333333  0.02678571  1.0
  V  V91  1  0.08333333  0.41666667  0.02678571  1.0
  V  V92  1  0.08333333  0.75000000  0.02678571  1.0
  V  V93  1  0.41666667  0.08333333  0.02678571  1.0
  V  V94  1  0.41666667  0.41666667  0.02678571  1.0
  V  V95  1  0.41666667  0.75000000  0.02678571  1.0
  V  V96  1  0.75000000  0.08333333  0.02678571  1.0
  V  V97  1  0.75000000  0.41666667  0.02678571  1.0
  V  V98  1  0.75000000  0.75000000  0.02678571  1.0
  V  V99  1  0.08333333  0.25000000  0.09821429  1.0
  V  V100  1  0.08333333  0.58333333  0.09821429  1.0
  V  V101  1  0.08333333  0.91666667  0.09821429  1.0
  V  V102  1  0.41666667  0.25000000  0.09821429  1.0
  V  V103  1  0.41666667  0.58333333  0.09821429  1.0
  V  V104  1  0.41666667  0.91666667  0.09821429  1.0
  V  V105  1  0.75000000  0.25000000  0.09821429  1.0
  V  V106  1  0.75000000  0.58333333  0.09821429  1.0
  V  V107  1  0.75000000  0.91666667  0.09821429  1.0
  Ni  Ni108  1  0.16666667  0.08333333  0.09821429  1.0
  Ni  Ni109  1  0.16666667  0.41666667  0.09821429  1.0
  Ni  Ni110  1  0.16666667  0.75000000  0.09821429  1.0
  Ni  Ni111  1  0.50000000  0.08333333  0.09821429  1.0
  Ni  Ni112  1  0.50000000  0.41666667  0.09821429  1.0
  Ni  Ni113  1  0.50000000  0.75000000  0.09821429  1.0
  Ni  Ni114  1  0.83333333  0.08333333  0.09821429  1.0
  Ni  Ni115  1  0.83333333  0.41666667  0.09821429  1.0
  Ni  Ni116  1  0.83333333  0.75000000  0.09821429  1.0
  Ni  Ni117  1  0.16666667  0.25000000  0.02678571  1.0
  Ni  Ni118  1  0.16666667  0.58333333  0.02678571  1.0
  Ni  Ni119  1  0.16666667  0.91666667  0.02678571  1.0
  Ni  Ni120  1  0.50000000  0.25000000  0.02678571  1.0
  Ni  Ni121  1  0.50000000  0.58333333  0.02678571  1.0
  Ni  Ni122  1  0.50000000  0.91666667  0.02678571  1.0
  Ni  Ni123  1  0.83333333  0.25000000  0.02678571  1.0
  Ni  Ni124  1  0.83333333  0.58333333  0.02678571  1.0
  Ni  Ni125  1  0.83333333  0.91666667  0.02678571  1.0
  Ni  Ni126  1  0.00000000  0.16666667  0.06250000  1.0
  Ni  Ni127  1  0.00000000  0.50000000  0.06250000  1.0
  Ni  Ni128  1  0.00000000  0.83333333  0.06250000  1.0
  Ni  Ni129  1  0.33333333  0.16666667  0.06250000  1.0
  Ni  Ni130  1  0.33333333  0.50000000  0.06250000  1.0
  Ni  Ni131  1  0.33333333  0.83333333  0.06250000  1.0
  Ni  Ni132  1  0.66666667  0.16666667  0.06250000  1.0
  Ni  Ni133  1  0.66666667  0.50000000  0.06250000  1.0
  Ni  Ni134  1  0.66666667  0.83333333  0.06250000  1.0
  Ni  Ni135  1  0.00000000  0.00000000  0.13392857  1.0
  Ni  Ni136  1  0.00000000  0.33333333  0.13392857  1.0
  Ni  Ni137  1  0.00000000  0.66666667  0.13392857  1.0
  Ni  Ni138  1  0.33333333  0.00000000  0.13392857  1.0
  Ni  Ni139  1  0.33333333  0.33333333  0.13392857  1.0
  Ni  Ni140  1  0.33333333  0.66666667  0.13392857  1.0
  Ni  Ni141  1  0.66666667  0.00000000  0.13392857  1.0
  Ni  Ni142  1  0.66666667  0.33333333  0.13392857  1.0
  Ni  Ni143  1  0.66666667  0.66666667  0.13392857  1.0
  V  V144  1  0.00000000  0.12500000  0.25892857  1.0
  V  V145  1  0.00000000  0.45833333  0.25892857  1.0
  V  V146  1  0.00000000  0.79166667  0.25892857  1.0
  V  V147  1  0.33333333  0.12500000  0.25892857  1.0
  V  V148  1  0.33333333  0.45833333  0.25892857  1.0
  V  V149  1  0.33333333  0.79166667  0.25892857  1.0
  V  V150  1  0.66666667  0.12500000  0.25892857  1.0
  V  V151  1  0.66666667  0.45833333  0.25892857  1.0
  V  V152  1  0.66666667  0.79166667  0.25892857  1.0
  V  V153  1  0.00000000  0.29166667  0.18750000  1.0
  V  V154  1  0.00000000  0.62500000  0.18750000  1.0
  V  V155  1  0.00000000  0.95833333  0.18750000  1.0
  V  V156  1  0.33333333  0.29166667  0.18750000  1.0
  V  V157  1  0.33333333  0.62500000  0.18750000  1.0
  V  V158  1  0.33333333  0.95833333  0.18750000  1.0
  V  V159  1  0.66666667  0.29166667  0.18750000  1.0
  V  V160  1  0.66666667  0.62500000  0.18750000  1.0
  V  V161  1  0.66666667  0.95833333  0.18750000  1.0
  V  V162  1  0.00000000  0.04166667  0.22321429  1.0
  V  V163  1  0.00000000  0.37500000  0.22321429  1.0
  V  V164  1  0.00000000  0.70833333  0.22321429  1.0
  V  V165  1  0.33333333  0.04166667  0.22321429  1.0
  V  V166  1  0.33333333  0.37500000  0.22321429  1.0
  V  V167  1  0.33333333  0.70833333  0.22321429  1.0
  V  V168  1  0.66666667  0.04166667  0.22321429  1.0
  V  V169  1  0.66666667  0.37500000  0.22321429  1.0
  V  V170  1  0.66666667  0.70833333  0.22321429  1.0
  V  V171  1  0.00000000  0.20833333  0.15178571  1.0
  V  V172  1  0.00000000  0.54166667  0.15178571  1.0
  V  V173  1  0.00000000  0.87500000  0.15178571  1.0
  V  V174  1  0.33333333  0.20833333  0.15178571  1.0
  V  V175  1  0.33333333  0.54166667  0.15178571  1.0
  V  V176  1  0.33333333  0.87500000  0.15178571  1.0
  V  V177  1  0.66666667  0.20833333  0.15178571  1.0
  V  V178  1  0.66666667  0.54166667  0.15178571  1.0
  V  V179  1  0.66666667  0.87500000  0.15178571  1.0
  V  V180  1  0.16666667  0.16666667  0.16964286  1.0
  V  V181  1  0.16666667  0.50000000  0.16964286  1.0
  V  V182  1  0.16666667  0.83333333  0.16964286  1.0
  V  V183  1  0.50000000  0.16666667  0.16964286  1.0
  V  V184  1  0.50000000  0.50000000  0.16964286  1.0
  V  V185  1  0.50000000  0.83333333  0.16964286  1.0
  V  V186  1  0.83333333  0.16666667  0.16964286  1.0
  V  V187  1  0.83333333  0.50000000  0.16964286  1.0
  V  V188  1  0.83333333  0.83333333  0.16964286  1.0
  V  V189  1  0.16666667  0.00000000  0.24107143  1.0
  V  V190  1  0.16666667  0.33333333  0.24107143  1.0
  V  V191  1  0.16666667  0.66666667  0.24107143  1.0
  V  V192  1  0.50000000  0.00000000  0.24107143  1.0
  V  V193  1  0.50000000  0.33333333  0.24107143  1.0
  V  V194  1  0.50000000  0.66666667  0.24107143  1.0
  V  V195  1  0.83333333  0.00000000  0.24107143  1.0
  V  V196  1  0.83333333  0.33333333  0.24107143  1.0
  V  V197  1  0.83333333  0.66666667  0.24107143  1.0
  V  V198  1  0.16666667  0.16666667  0.24107143  1.0
  V  V199  1  0.16666667  0.50000000  0.24107143  1.0
  V  V200  1  0.16666667  0.83333333  0.24107143  1.0
  V  V201  1  0.50000000  0.16666667  0.24107143  1.0
  V  V202  1  0.50000000  0.50000000  0.24107143  1.0
  V  V203  1  0.50000000  0.83333333  0.24107143  1.0
  V  V204  1  0.83333333  0.16666667  0.24107143  1.0
  V  V205  1  0.83333333  0.50000000  0.24107143  1.0
  V  V206  1  0.83333333  0.83333333  0.24107143  1.0
  V  V207  1  0.16666667  0.00000000  0.16964286  1.0
  V  V208  1  0.16666667  0.33333333  0.16964286  1.0
  V  V209  1  0.16666667  0.66666667  0.16964286  1.0
  V  V210  1  0.50000000  0.00000000  0.16964286  1.0
  V  V211  1  0.50000000  0.33333333  0.16964286  1.0
  V  V212  1  0.50000000  0.66666667  0.16964286  1.0
  V  V213  1  0.83333333  0.00000000  0.16964286  1.0
  V  V214  1  0.83333333  0.33333333  0.16964286  1.0
  V  V215  1  0.83333333  0.66666667  0.16964286  1.0
  V  V216  1  0.25000000  0.08333333  0.16964286  1.0
  V  V217  1  0.25000000  0.41666667  0.16964286  1.0
  V  V218  1  0.25000000  0.75000000  0.16964286  1.0
  V  V219  1  0.58333333  0.08333333  0.16964286  1.0
  V  V220  1  0.58333333  0.41666667  0.16964286  1.0
  V  V221  1  0.58333333  0.75000000  0.16964286  1.0
  V  V222  1  0.91666667  0.08333333  0.16964286  1.0
  V  V223  1  0.91666667  0.41666667  0.16964286  1.0
  V  V224  1  0.91666667  0.75000000  0.16964286  1.0
  V  V225  1  0.25000000  0.25000000  0.24107143  1.0
  V  V226  1  0.25000000  0.58333333  0.24107143  1.0
  V  V227  1  0.25000000  0.91666667  0.24107143  1.0
  V  V228  1  0.58333333  0.25000000  0.24107143  1.0
  V  V229  1  0.58333333  0.58333333  0.24107143  1.0
  V  V230  1  0.58333333  0.91666667  0.24107143  1.0
  V  V231  1  0.91666667  0.25000000  0.24107143  1.0
  V  V232  1  0.91666667  0.58333333  0.24107143  1.0
  V  V233  1  0.91666667  0.91666667  0.24107143  1.0
  V  V234  1  0.08333333  0.08333333  0.16964286  1.0
  V  V235  1  0.08333333  0.41666667  0.16964286  1.0
  V  V236  1  0.08333333  0.75000000  0.16964286  1.0
  V  V237  1  0.41666667  0.08333333  0.16964286  1.0
  V  V238  1  0.41666667  0.41666667  0.16964286  1.0
  V  V239  1  0.41666667  0.75000000  0.16964286  1.0
  V  V240  1  0.75000000  0.08333333  0.16964286  1.0
  V  V241  1  0.75000000  0.41666667  0.16964286  1.0
  V  V242  1  0.75000000  0.75000000  0.16964286  1.0
  V  V243  1  0.08333333  0.25000000  0.24107143  1.0
  V  V244  1  0.08333333  0.58333333  0.24107143  1.0
  V  V245  1  0.08333333  0.91666667  0.24107143  1.0
  V  V246  1  0.41666667  0.25000000  0.24107143  1.0
  V  V247  1  0.41666667  0.58333333  0.24107143  1.0
  V  V248  1  0.41666667  0.91666667  0.24107143  1.0
  V  V249  1  0.75000000  0.25000000  0.24107143  1.0
  V  V250  1  0.75000000  0.58333333  0.24107143  1.0
  V  V251  1  0.75000000  0.91666667  0.24107143  1.0
  Ni  Ni252  1  0.16666667  0.08333333  0.24107143  1.0
  Ni  Ni253  1  0.16666667  0.41666667  0.24107143  1.0
  Ni  Ni254  1  0.16666667  0.75000000  0.24107143  1.0
  Ni  Ni255  1  0.50000000  0.08333333  0.24107143  1.0
  Ni  Ni256  1  0.50000000  0.41666667  0.24107143  1.0
  Ni  Ni257  1  0.50000000  0.75000000  0.24107143  1.0
  Ni  Ni258  1  0.83333333  0.08333333  0.24107143  1.0
  Ni  Ni259  1  0.83333333  0.41666667  0.24107143  1.0
  Ni  Ni260  1  0.83333333  0.75000000  0.24107143  1.0
  Ni  Ni261  1  0.16666667  0.25000000  0.16964286  1.0
  Ni  Ni262  1  0.16666667  0.58333333  0.16964286  1.0
  Ni  Ni263  1  0.16666667  0.91666667  0.16964286  1.0
  Ni  Ni264  1  0.50000000  0.25000000  0.16964286  1.0
  Ni  Ni265  1  0.50000000  0.58333333  0.16964286  1.0
  Ni  Ni266  1  0.50000000  0.91666667  0.16964286  1.0
  Ni  Ni267  1  0.83333333  0.25000000  0.16964286  1.0
  Ni  Ni268  1  0.83333333  0.58333333  0.16964286  1.0
  Ni  Ni269  1  0.83333333  0.91666667  0.16964286  1.0
  Ni  Ni270  1  0.00000000  0.16666667  0.20535714  1.0
  Ni  Ni271  1  0.00000000  0.50000000  0.20535714  1.0
  Ni  Ni272  1  0.00000000  0.83333333  0.20535714  1.0
  Ni  Ni273  1  0.33333333  0.16666667  0.20535714  1.0
  Ni  Ni274  1  0.33333333  0.50000000  0.20535714  1.0
  Ni  Ni275  1  0.33333333  0.83333333  0.20535714  1.0
  Ni  Ni276  1  0.66666667  0.16666667  0.20535714  1.0
  Ni  Ni277  1  0.66666667  0.50000000  0.20535714  1.0
  Ni  Ni278  1  0.66666667  0.83333333  0.20535714  1.0
  Ni  Ni279  1  0.00000000  0.00000000  0.27678571  1.0
  Ni  Ni280  1  0.00000000  0.33333333  0.27678571  1.0
  Ni  Ni281  1  0.00000000  0.66666667  0.27678571  1.0
  Ni  Ni282  1  0.33333333  0.00000000  0.27678571  1.0
  Ni  Ni283  1  0.33333333  0.33333333  0.27678571  1.0
  Ni  Ni284  1  0.33333333  0.66666667  0.27678571  1.0
  Ni  Ni285  1  0.66666667  0.00000000  0.27678571  1.0
  Ni  Ni286  1  0.66666667  0.33333333  0.27678571  1.0
  Ni  Ni287  1  0.66666667  0.66666667  0.27678571  1.0
  V  V288  1  0.00000000  0.12500000  0.40178571  1.0
  V  V289  1  0.00000000  0.45833333  0.40178571  1.0
  V  V290  1  0.00000000  0.79166667  0.40178571  1.0
  V  V291  1  0.33333333  0.12500000  0.40178571  1.0
  V  V292  1  0.33333333  0.45833333  0.40178571  1.0
  V  V293  1  0.33333333  0.79166667  0.40178571  1.0
  V  V294  1  0.66666667  0.12500000  0.40178571  1.0
  V  V295  1  0.66666667  0.45833333  0.40178571  1.0
  V  V296  1  0.66666667  0.79166667  0.40178571  1.0
  V  V297  1  0.00000000  0.29166667  0.33035714  1.0
  V  V298  1  0.00000000  0.62500000  0.33035714  1.0
  V  V299  1  0.00000000  0.95833333  0.33035714  1.0
  V  V300  1  0.33333333  0.29166667  0.33035714  1.0
  V  V301  1  0.33333333  0.62500000  0.33035714  1.0
  V  V302  1  0.33333333  0.95833333  0.33035714  1.0
  V  V303  1  0.66666667  0.29166667  0.33035714  1.0
  V  V304  1  0.66666667  0.62500000  0.33035714  1.0
  V  V305  1  0.66666667  0.95833333  0.33035714  1.0
  V  V306  1  0.00000000  0.04166667  0.36607143  1.0
  V  V307  1  0.00000000  0.37500000  0.36607143  1.0
  V  V308  1  0.00000000  0.70833333  0.36607143  1.0
  V  V309  1  0.33333333  0.04166667  0.36607143  1.0
  V  V310  1  0.33333333  0.37500000  0.36607143  1.0
  V  V311  1  0.33333333  0.70833333  0.36607143  1.0
  V  V312  1  0.66666667  0.04166667  0.36607143  1.0
  V  V313  1  0.66666667  0.37500000  0.36607143  1.0
  V  V314  1  0.66666667  0.70833333  0.36607143  1.0
  V  V315  1  0.00000000  0.20833333  0.29464286  1.0
  V  V316  1  0.00000000  0.54166667  0.29464286  1.0
  V  V317  1  0.00000000  0.87500000  0.29464286  1.0
  V  V318  1  0.33333333  0.20833333  0.29464286  1.0
  V  V319  1  0.33333333  0.54166667  0.29464286  1.0
  V  V320  1  0.33333333  0.87500000  0.29464286  1.0
  V  V321  1  0.66666667  0.20833333  0.29464286  1.0
  V  V322  1  0.66666667  0.54166667  0.29464286  1.0
  V  V323  1  0.66666667  0.87500000  0.29464286  1.0
  V  V324  1  0.16666667  0.16666667  0.31250000  1.0
  V  V325  1  0.16666667  0.50000000  0.31250000  1.0
  V  V326  1  0.16666667  0.83333333  0.31250000  1.0
  V  V327  1  0.50000000  0.16666667  0.31250000  1.0
  V  V328  1  0.50000000  0.50000000  0.31250000  1.0
  V  V329  1  0.50000000  0.83333333  0.31250000  1.0
  V  V330  1  0.83333333  0.16666667  0.31250000  1.0
  V  V331  1  0.83333333  0.50000000  0.31250000  1.0
  V  V332  1  0.83333333  0.83333333  0.31250000  1.0
  V  V333  1  0.16666667  0.00000000  0.38392857  1.0
  V  V334  1  0.16666667  0.33333333  0.38392857  1.0
  V  V335  1  0.16666667  0.66666667  0.38392857  1.0
  V  V336  1  0.50000000  0.00000000  0.38392857  1.0
  V  V337  1  0.50000000  0.33333333  0.38392857  1.0
  V  V338  1  0.50000000  0.66666667  0.38392857  1.0
  V  V339  1  0.83333333  0.00000000  0.38392857  1.0
  V  V340  1  0.83333333  0.33333333  0.38392857  1.0
  V  V341  1  0.83333333  0.66666667  0.38392857  1.0
  V  V342  1  0.16666667  0.16666667  0.38392857  1.0
  V  V343  1  0.16666667  0.50000000  0.38392857  1.0
  V  V344  1  0.16666667  0.83333333  0.38392857  1.0
  V  V345  1  0.50000000  0.16666667  0.38392857  1.0
  V  V346  1  0.50000000  0.50000000  0.38392857  1.0
  V  V347  1  0.50000000  0.83333333  0.38392857  1.0
  V  V348  1  0.83333333  0.16666667  0.38392857  1.0
  V  V349  1  0.83333333  0.50000000  0.38392857  1.0
  V  V350  1  0.83333333  0.83333333  0.38392857  1.0
  V  V351  1  0.16666667  0.00000000  0.31250000  1.0
  V  V352  1  0.16666667  0.33333333  0.31250000  1.0
  V  V353  1  0.16666667  0.66666667  0.31250000  1.0
  V  V354  1  0.50000000  0.00000000  0.31250000  1.0
  V  V355  1  0.50000000  0.33333333  0.31250000  1.0
  V  V356  1  0.50000000  0.66666667  0.31250000  1.0
  V  V357  1  0.83333333  0.00000000  0.31250000  1.0
  V  V358  1  0.83333333  0.33333333  0.31250000  1.0
  V  V359  1  0.83333333  0.66666667  0.31250000  1.0
  V  V360  1  0.25000000  0.08333333  0.31250000  1.0
  V  V361  1  0.25000000  0.41666667  0.31250000  1.0
  V  V362  1  0.25000000  0.75000000  0.31250000  1.0
  V  V363  1  0.58333333  0.08333333  0.31250000  1.0
  V  V364  1  0.58333333  0.41666667  0.31250000  1.0
  V  V365  1  0.58333333  0.75000000  0.31250000  1.0
  V  V366  1  0.91666667  0.08333333  0.31250000  1.0
  V  V367  1  0.91666667  0.41666667  0.31250000  1.0
  V  V368  1  0.91666667  0.75000000  0.31250000  1.0
  V  V369  1  0.25000000  0.25000000  0.38392857  1.0
  V  V370  1  0.25000000  0.58333333  0.38392857  1.0
  V  V371  1  0.25000000  0.91666667  0.38392857  1.0
  V  V372  1  0.58333333  0.25000000  0.38392857  1.0
  V  V373  1  0.58333333  0.58333333  0.38392857  1.0
  V  V374  1  0.58333333  0.91666667  0.38392857  1.0
  V  V375  1  0.91666667  0.25000000  0.38392857  1.0
  V  V376  1  0.91666667  0.58333333  0.38392857  1.0
  V  V377  1  0.91666667  0.91666667  0.38392857  1.0
  V  V378  1  0.08333333  0.08333333  0.31250000  1.0
  V  V379  1  0.08333333  0.41666667  0.31250000  1.0
  V  V380  1  0.08333333  0.75000000  0.31250000  1.0
  V  V381  1  0.41666667  0.08333333  0.31250000  1.0
  V  V382  1  0.41666667  0.41666667  0.31250000  1.0
  V  V383  1  0.41666667  0.75000000  0.31250000  1.0
  V  V384  1  0.75000000  0.08333333  0.31250000  1.0
  V  V385  1  0.75000000  0.41666667  0.31250000  1.0
  V  V386  1  0.75000000  0.75000000  0.31250000  1.0
  V  V387  1  0.08333333  0.25000000  0.38392857  1.0
  V  V388  1  0.08333333  0.58333333  0.38392857  1.0
  V  V389  1  0.08333333  0.91666667  0.38392857  1.0
  V  V390  1  0.41666667  0.25000000  0.38392857  1.0
  V  V391  1  0.41666667  0.58333333  0.38392857  1.0
  V  V392  1  0.41666667  0.91666667  0.38392857  1.0
  V  V393  1  0.75000000  0.25000000  0.38392857  1.0
  V  V394  1  0.75000000  0.58333333  0.38392857  1.0
  V  V395  1  0.75000000  0.91666667  0.38392857  1.0
  Ni  Ni396  1  0.16666667  0.08333333  0.38392857  1.0
  Ni  Ni397  1  0.16666667  0.41666667  0.38392857  1.0
  Ni  Ni398  1  0.16666667  0.75000000  0.38392857  1.0
  Ni  Ni399  1  0.50000000  0.08333333  0.38392857  1.0
  Ni  Ni400  1  0.50000000  0.41666667  0.38392857  1.0
  Ni  Ni401  1  0.50000000  0.75000000  0.38392857  1.0
  Ni  Ni402  1  0.83333333  0.08333333  0.38392857  1.0
  Ni  Ni403  1  0.83333333  0.41666667  0.38392857  1.0
  Ni  Ni404  1  0.83333333  0.75000000  0.38392857  1.0
  Ni  Ni405  1  0.16666667  0.25000000  0.31250000  1.0
  Ni  Ni406  1  0.16666667  0.58333333  0.31250000  1.0
  Ni  Ni407  1  0.16666667  0.91666667  0.31250000  1.0
  Ni  Ni408  1  0.50000000  0.25000000  0.31250000  1.0
  Ni  Ni409  1  0.50000000  0.58333333  0.31250000  1.0
  Ni  Ni410  1  0.50000000  0.91666667  0.31250000  1.0
  Ni  Ni411  1  0.83333333  0.25000000  0.31250000  1.0
  Ni  Ni412  1  0.83333333  0.58333333  0.31250000  1.0
  Ni  Ni413  1  0.83333333  0.91666667  0.31250000  1.0
  Ni  Ni414  1  0.00000000  0.16666667  0.34821429  1.0
  Ni  Ni415  1  0.00000000  0.50000000  0.34821429  1.0
  Ni  Ni416  1  0.00000000  0.83333333  0.34821429  1.0
  Ni  Ni417  1  0.33333333  0.16666667  0.34821429  1.0
  Ni  Ni418  1  0.33333333  0.50000000  0.34821429  1.0
  Ni  Ni419  1  0.33333333  0.83333333  0.34821429  1.0
  Ni  Ni420  1  0.66666667  0.16666667  0.34821429  1.0
  Ni  Ni421  1  0.66666667  0.50000000  0.34821429  1.0
  Ni  Ni422  1  0.66666667  0.83333333  0.34821429  1.0
  Ni  Ni423  1  0.00000000  0.00000000  0.41964286  1.0
  Ni  Ni424  1  0.00000000  0.33333333  0.41964286  1.0
  Ni  Ni425  1  0.00000000  0.66666667  0.41964286  1.0
  Ni  Ni426  1  0.33333333  0.00000000  0.41964286  1.0
  Ni  Ni427  1  0.33333333  0.33333333  0.41964286  1.0
  Ni  Ni428  1  0.33333333  0.66666667  0.41964286  1.0
  Ni  Ni429  1  0.66666667  0.00000000  0.41964286  1.0
  Ni  Ni430  1  0.66666667  0.33333333  0.41964286  1.0
  Ni  Ni431  1  0.66666667  0.66666667  0.41964286  1.0
