# generated using pymatgen
data_V3Ni2
_symmetry_space_group_name_H-M   'P 1'
_cell_length_a   13.83877800
_cell_length_b   27.06967500
_cell_length_c   35.57483600
_cell_angle_alpha   90.52652745
_cell_angle_beta   90.00000000
_cell_angle_gamma   90.00000000
_symmetry_Int_Tables_number   1
_chemical_formula_structural   V3Ni2
_chemical_formula_sum   'V324 Ni216'
_cell_volume   13326.17010331
_cell_formula_units_Z   108
loop_
 _symmetry_equiv_pos_site_id
 _symmetry_equiv_pos_as_xyz
  1  'x, y, z'
loop_
 _atom_site_type_symbol
 _atom_site_label
 _atom_site_symmetry_multiplicity
 _atom_site_fract_x
 _atom_site_fract_y
 _atom_site_fract_z
 _atom_site_occupancy
  V  V0  1  0.25146600  0.22660167  0.16634138  1.0
  V  V1  1  0.25146600  0.55993500  0.16634138  1.0
  V  V2  1  0.25146600  0.89326833  0.16634138  1.0
  V  V3  1  0.58479933  0.22660167  0.16634138  1.0
  V  V4  1  0.58479933  0.55993500  0.16634138  1.0
  V  V5  1  0.58479933  0.89326833  0.16634138  1.0
  V  V6  1  0.91813267  0.22660167  0.16634138  1.0
  V  V7  1  0.91813267  0.55993500  0.16634138  1.0
  V  V8  1  0.91813267  0.89326833  0.16634138  1.0
  V  V9  1  0.25146600  0.10673167  0.07420137  1.0
  V  V10  1  0.25146600  0.44006500  0.07420137  1.0
  V  V11  1  0.25146600  0.77339833  0.07420137  1.0
  V  V12  1  0.58479933  0.10673167  0.07420138  1.0
  V  V13  1  0.58479933  0.44006500  0.07420137  1.0
  V  V14  1  0.58479933  0.77339833  0.07420137  1.0
  V  V15  1  0.91813267  0.10673167  0.07420137  1.0
  V  V16  1  0.91813267  0.44006500  0.07420137  1.0
  V  V17  1  0.91813267  0.77339833  0.07420137  1.0
  V  V18  1  0.08482867  0.27248900  0.03974863  1.0
  V  V19  1  0.08482867  0.60582233  0.03974863  1.0
  V  V20  1  0.08482867  0.93915567  0.03974863  1.0
  V  V21  1  0.41816200  0.27248900  0.03974863  1.0
  V  V22  1  0.41816200  0.60582233  0.03974863  1.0
  V  V23  1  0.41816200  0.93915567  0.03974863  1.0
  V  V24  1  0.75149533  0.27248900  0.03974863  1.0
  V  V25  1  0.75149533  0.60582233  0.03974863  1.0
  V  V26  1  0.75149533  0.93915567  0.03974863  1.0
  V  V27  1  0.08482867  0.06084433  0.20079412  1.0
  V  V28  1  0.08482867  0.39417767  0.20079412  1.0
  V  V29  1  0.08482867  0.72751100  0.20079412  1.0
  V  V30  1  0.41816200  0.06084433  0.20079412  1.0
  V  V31  1  0.41816200  0.39417767  0.20079412  1.0
  V  V32  1  0.41816200  0.72751100  0.20079412  1.0
  V  V33  1  0.75149533  0.06084433  0.20079413  1.0
  V  V34  1  0.75149533  0.39417767  0.20079412  1.0
  V  V35  1  0.75149533  0.72751100  0.20079412  1.0
  V  V36  1  0.08186733  0.10673167  0.07420137  1.0
  V  V37  1  0.08186733  0.44006500  0.07420137  1.0
  V  V38  1  0.08186733  0.77339833  0.07420138  1.0
  V  V39  1  0.41520067  0.10673167  0.07420138  1.0
  V  V40  1  0.41520067  0.44006500  0.07420137  1.0
  V  V41  1  0.41520067  0.77339833  0.07420137  1.0
  V  V42  1  0.74853400  0.10673167  0.07420137  1.0
  V  V43  1  0.74853400  0.44006500  0.07420137  1.0
  V  V44  1  0.74853400  0.77339833  0.07420138  1.0
  V  V45  1  0.08186733  0.22660167  0.16634137  1.0
  V  V46  1  0.08186733  0.55993500  0.16634138  1.0
  V  V47  1  0.08186733  0.89326833  0.16634137  1.0
  V  V48  1  0.41520067  0.22660167  0.16634137  1.0
  V  V49  1  0.41520067  0.55993500  0.16634137  1.0
  V  V50  1  0.41520067  0.89326833  0.16634138  1.0
  V  V51  1  0.74853400  0.22660167  0.16634138  1.0
  V  V52  1  0.74853400  0.55993500  0.16634137  1.0
  V  V53  1  0.74853400  0.89326833  0.16634138  1.0
  V  V54  1  0.24850467  0.06084433  0.20079412  1.0
  V  V55  1  0.24850467  0.39417767  0.20079412  1.0
  V  V56  1  0.24850467  0.72751100  0.20079412  1.0
  V  V57  1  0.58183800  0.06084433  0.20079412  1.0
  V  V58  1  0.58183800  0.39417767  0.20079412  1.0
  V  V59  1  0.58183800  0.72751100  0.20079412  1.0
  V  V60  1  0.91517133  0.06084433  0.20079413  1.0
  V  V61  1  0.91517133  0.39417767  0.20079412  1.0
  V  V62  1  0.91517133  0.72751100  0.20079412  1.0
  V  V63  1  0.24850467  0.27248900  0.03974863  1.0
  V  V64  1  0.24850467  0.60582233  0.03974863  1.0
  V  V65  1  0.24850467  0.93915567  0.03974863  1.0
  V  V66  1  0.58183800  0.27248900  0.03974863  1.0
  V  V67  1  0.58183800  0.60582233  0.03974863  1.0
  V  V68  1  0.58183800  0.93915567  0.03974863  1.0
  V  V69  1  0.91517133  0.27248900  0.03974863  1.0
  V  V70  1  0.91517133  0.60582233  0.03974863  1.0
  V  V71  1  0.91517133  0.93915567  0.03974863  1.0
  V  V72  1  0.16666667  0.29888867  0.21880112  1.0
  V  V73  1  0.16666667  0.63222200  0.21880113  1.0
  V  V74  1  0.16666667  0.96555533  0.21880112  1.0
  V  V75  1  0.50000000  0.29888867  0.21880112  1.0
  V  V76  1  0.50000000  0.63222200  0.21880112  1.0
  V  V77  1  0.50000000  0.96555533  0.21880113  1.0
  V  V78  1  0.83333333  0.29888867  0.21880113  1.0
  V  V79  1  0.83333333  0.63222200  0.21880112  1.0
  V  V80  1  0.83333333  0.96555533  0.21880113  1.0
  V  V81  1  0.16666667  0.03444467  0.02174163  1.0
  V  V82  1  0.16666667  0.36777800  0.02174163  1.0
  V  V83  1  0.16666667  0.70111133  0.02174163  1.0
  V  V84  1  0.50000000  0.03444467  0.02174163  1.0
  V  V85  1  0.50000000  0.36777800  0.02174163  1.0
  V  V86  1  0.50000000  0.70111133  0.02174163  1.0
  V  V87  1  0.83333333  0.03444467  0.02174163  1.0
  V  V88  1  0.83333333  0.36777800  0.02174163  1.0
  V  V89  1  0.83333333  0.70111133  0.02174163  1.0
  V  V90  1  0.00000000  0.20222067  0.09274763  1.0
  V  V91  1  0.00000000  0.53555400  0.09274763  1.0
  V  V92  1  0.00000000  0.86888733  0.09274763  1.0
  V  V93  1  0.33333333  0.20222067  0.09274763  1.0
  V  V94  1  0.33333333  0.53555400  0.09274763  1.0
  V  V95  1  0.33333333  0.86888733  0.09274763  1.0
  V  V96  1  0.66666667  0.20222067  0.09274762  1.0
  V  V97  1  0.66666667  0.53555400  0.09274763  1.0
  V  V98  1  0.66666667  0.86888733  0.09274763  1.0
  V  V99  1  0.00000000  0.13111267  0.14779513  1.0
  V  V100  1  0.00000000  0.46444600  0.14779513  1.0
  V  V101  1  0.00000000  0.79777933  0.14779513  1.0
  V  V102  1  0.33333333  0.13111267  0.14779513  1.0
  V  V103  1  0.33333333  0.46444600  0.14779513  1.0
  V  V104  1  0.33333333  0.79777933  0.14779513  1.0
  V  V105  1  0.66666667  0.13111267  0.14779513  1.0
  V  V106  1  0.66666667  0.46444600  0.14779513  1.0
  V  V107  1  0.66666667  0.79777933  0.14779513  1.0
  V  V108  1  0.00000000  0.29158200  0.11157738  1.0
  V  V109  1  0.00000000  0.62491533  0.11157738  1.0
  V  V110  1  0.00000000  0.95824867  0.11157738  1.0
  V  V111  1  0.33333333  0.29158200  0.11157738  1.0
  V  V112  1  0.33333333  0.62491533  0.11157738  1.0
  V  V113  1  0.33333333  0.95824867  0.11157738  1.0
  V  V114  1  0.66666667  0.29158200  0.11157738  1.0
  V  V115  1  0.66666667  0.62491533  0.11157738  1.0
  V  V116  1  0.66666667  0.95824867  0.11157738  1.0
  V  V117  1  0.00000000  0.04175133  0.12896537  1.0
  V  V118  1  0.00000000  0.37508467  0.12896538  1.0
  V  V119  1  0.00000000  0.70841800  0.12896537  1.0
  V  V120  1  0.33333333  0.04175133  0.12896537  1.0
  V  V121  1  0.33333333  0.37508467  0.12896538  1.0
  V  V122  1  0.33333333  0.70841800  0.12896538  1.0
  V  V123  1  0.66666667  0.04175133  0.12896538  1.0
  V  V124  1  0.66666667  0.37508467  0.12896537  1.0
  V  V125  1  0.66666667  0.70841800  0.12896537  1.0
  V  V126  1  0.16666667  0.01190033  0.08868113  1.0
  V  V127  1  0.16666667  0.34523367  0.08868113  1.0
  V  V128  1  0.16666667  0.67856700  0.08868113  1.0
  V  V129  1  0.50000000  0.01190033  0.08868113  1.0
  V  V130  1  0.50000000  0.34523367  0.08868113  1.0
  V  V131  1  0.50000000  0.67856700  0.08868113  1.0
  V  V132  1  0.83333333  0.01190033  0.08868113  1.0
  V  V133  1  0.83333333  0.34523367  0.08868113  1.0
  V  V134  1  0.83333333  0.67856700  0.08868113  1.0
  V  V135  1  0.16666667  0.32143300  0.15186163  1.0
  V  V136  1  0.16666667  0.65476633  0.15186163  1.0
  V  V137  1  0.16666667  0.98809967  0.15186162  1.0
  V  V138  1  0.50000000  0.32143300  0.15186163  1.0
  V  V139  1  0.50000000  0.65476633  0.15186163  1.0
  V  V140  1  0.50000000  0.98809967  0.15186163  1.0
  V  V141  1  0.83333333  0.32143300  0.15186163  1.0
  V  V142  1  0.83333333  0.65476633  0.15186163  1.0
  V  V143  1  0.83333333  0.98809967  0.15186163  1.0
  V  V144  1  0.00000000  0.17807033  0.02576588  1.0
  V  V145  1  0.00000000  0.51140367  0.02576588  1.0
  V  V146  1  0.00000000  0.84473700  0.02576588  1.0
  V  V147  1  0.33333333  0.17807033  0.02576588  1.0
  V  V148  1  0.33333333  0.51140367  0.02576588  1.0
  V  V149  1  0.33333333  0.84473700  0.02576588  1.0
  V  V150  1  0.66666667  0.17807033  0.02576588  1.0
  V  V151  1  0.66666667  0.51140367  0.02576588  1.0
  V  V152  1  0.66666667  0.84473700  0.02576588  1.0
  V  V153  1  0.00000000  0.15526300  0.21477687  1.0
  V  V154  1  0.00000000  0.48859633  0.21477687  1.0
  V  V155  1  0.00000000  0.82192967  0.21477687  1.0
  V  V156  1  0.33333333  0.15526300  0.21477687  1.0
  V  V157  1  0.33333333  0.48859633  0.21477687  1.0
  V  V158  1  0.33333333  0.82192967  0.21477687  1.0
  V  V159  1  0.66666667  0.15526300  0.21477688  1.0
  V  V160  1  0.66666667  0.48859633  0.21477687  1.0
  V  V161  1  0.66666667  0.82192967  0.21477687  1.0
  Ni  Ni162  1  0.16666667  0.16666667  0.12027137  1.0
  Ni  Ni163  1  0.16666667  0.50000000  0.12027137  1.0
  Ni  Ni164  1  0.16666667  0.83333333  0.12027137  1.0
  Ni  Ni165  1  0.50000000  0.16666667  0.12027137  1.0
  Ni  Ni166  1  0.50000000  0.50000000  0.12027137  1.0
  Ni  Ni167  1  0.50000000  0.83333333  0.12027138  1.0
  Ni  Ni168  1  0.83333333  0.16666667  0.12027137  1.0
  Ni  Ni169  1  0.83333333  0.50000000  0.12027137  1.0
  Ni  Ni170  1  0.83333333  0.83333333  0.12027137  1.0
  Ni  Ni171  1  0.00000000  0.00000000  0.24527138  1.0
  Ni  Ni172  1  0.00000000  0.33333333  0.24527138  1.0
  Ni  Ni173  1  0.00000000  0.66666667  0.24527138  1.0
  Ni  Ni174  1  0.33333333  0.00000000  0.24527138  1.0
  Ni  Ni175  1  0.33333333  0.33333333  0.24527137  1.0
  Ni  Ni176  1  0.33333333  0.66666667  0.24527138  1.0
  Ni  Ni177  1  0.66666667  0.00000000  0.24527137  1.0
  Ni  Ni178  1  0.66666667  0.33333333  0.24527137  1.0
  Ni  Ni179  1  0.66666667  0.66666667  0.24527138  1.0
  Ni  Ni180  1  0.16666667  0.18827233  0.05507413  1.0
  Ni  Ni181  1  0.16666667  0.52160567  0.05507413  1.0
  Ni  Ni182  1  0.16666667  0.85493900  0.05507413  1.0
  Ni  Ni183  1  0.50000000  0.18827233  0.05507413  1.0
  Ni  Ni184  1  0.50000000  0.52160567  0.05507413  1.0
  Ni  Ni185  1  0.50000000  0.85493900  0.05507413  1.0
  Ni  Ni186  1  0.83333333  0.18827233  0.05507413  1.0
  Ni  Ni187  1  0.83333333  0.52160567  0.05507413  1.0
  Ni  Ni188  1  0.83333333  0.85493900  0.05507413  1.0
  Ni  Ni189  1  0.16666667  0.14506100  0.18546862  1.0
  Ni  Ni190  1  0.16666667  0.47839433  0.18546863  1.0
  Ni  Ni191  1  0.16666667  0.81172767  0.18546862  1.0
  Ni  Ni192  1  0.50000000  0.14506100  0.18546862  1.0
  Ni  Ni193  1  0.50000000  0.47839433  0.18546863  1.0
  Ni  Ni194  1  0.50000000  0.81172767  0.18546863  1.0
  Ni  Ni195  1  0.83333333  0.14506100  0.18546863  1.0
  Ni  Ni196  1  0.83333333  0.47839433  0.18546862  1.0
  Ni  Ni197  1  0.83333333  0.81172767  0.18546863  1.0
  Ni  Ni198  1  0.00000000  0.31173267  0.18069488  1.0
  Ni  Ni199  1  0.00000000  0.64506600  0.18069488  1.0
  Ni  Ni200  1  0.00000000  0.97839933  0.18069487  1.0
  Ni  Ni201  1  0.33333333  0.31173267  0.18069487  1.0
  Ni  Ni202  1  0.33333333  0.64506600  0.18069488  1.0
  Ni  Ni203  1  0.33333333  0.97839933  0.18069487  1.0
  Ni  Ni204  1  0.66666667  0.31173267  0.18069488  1.0
  Ni  Ni205  1  0.66666667  0.64506600  0.18069488  1.0
  Ni  Ni206  1  0.66666667  0.97839933  0.18069487  1.0
  Ni  Ni207  1  0.00000000  0.02160067  0.05984788  1.0
  Ni  Ni208  1  0.00000000  0.35493400  0.05984788  1.0
  Ni  Ni209  1  0.00000000  0.68826733  0.05984788  1.0
  Ni  Ni210  1  0.33333333  0.02160067  0.05984788  1.0
  Ni  Ni211  1  0.33333333  0.35493400  0.05984788  1.0
  Ni  Ni212  1  0.33333333  0.68826733  0.05984788  1.0
  Ni  Ni213  1  0.66666667  0.02160067  0.05984787  1.0
  Ni  Ni214  1  0.66666667  0.35493400  0.05984788  1.0
  Ni  Ni215  1  0.66666667  0.68826733  0.05984788  1.0
  Ni  Ni216  1  0.16666667  0.25225567  0.10405613  1.0
  Ni  Ni217  1  0.16666667  0.58558900  0.10405613  1.0
  Ni  Ni218  1  0.16666667  0.91892233  0.10405613  1.0
  Ni  Ni219  1  0.50000000  0.25225567  0.10405613  1.0
  Ni  Ni220  1  0.50000000  0.58558900  0.10405613  1.0
  Ni  Ni221  1  0.50000000  0.91892233  0.10405613  1.0
  Ni  Ni222  1  0.83333333  0.25225567  0.10405613  1.0
  Ni  Ni223  1  0.83333333  0.58558900  0.10405613  1.0
  Ni  Ni224  1  0.83333333  0.91892233  0.10405613  1.0
  Ni  Ni225  1  0.16666667  0.08107767  0.13648662  1.0
  Ni  Ni226  1  0.16666667  0.41441100  0.13648663  1.0
  Ni  Ni227  1  0.16666667  0.74774433  0.13648662  1.0
  Ni  Ni228  1  0.50000000  0.08107767  0.13648662  1.0
  Ni  Ni229  1  0.50000000  0.41441100  0.13648662  1.0
  Ni  Ni230  1  0.50000000  0.74774433  0.13648663  1.0
  Ni  Ni231  1  0.83333333  0.08107767  0.13648662  1.0
  Ni  Ni232  1  0.83333333  0.41441100  0.13648662  1.0
  Ni  Ni233  1  0.83333333  0.74774433  0.13648663  1.0
  Ni  Ni234  1  0.00000000  0.08615067  0.01170963  1.0
  Ni  Ni235  1  0.00000000  0.41948400  0.01170963  1.0
  Ni  Ni236  1  0.00000000  0.75281733  0.01170963  1.0
  Ni  Ni237  1  0.33333333  0.08615067  0.01170963  1.0
  Ni  Ni238  1  0.33333333  0.41948400  0.01170963  1.0
  Ni  Ni239  1  0.33333333  0.75281733  0.01170963  1.0
  Ni  Ni240  1  0.66666667  0.08615067  0.01170963  1.0
  Ni  Ni241  1  0.66666667  0.41948400  0.01170963  1.0
  Ni  Ni242  1  0.66666667  0.75281733  0.01170963  1.0
  Ni  Ni243  1  0.00000000  0.24718267  0.22883313  1.0
  Ni  Ni244  1  0.00000000  0.58051600  0.22883313  1.0
  Ni  Ni245  1  0.00000000  0.91384933  0.22883313  1.0
  Ni  Ni246  1  0.33333333  0.24718267  0.22883313  1.0
  Ni  Ni247  1  0.33333333  0.58051600  0.22883313  1.0
  Ni  Ni248  1  0.33333333  0.91384933  0.22883313  1.0
  Ni  Ni249  1  0.66666667  0.24718267  0.22883313  1.0
  Ni  Ni250  1  0.66666667  0.58051600  0.22883313  1.0
  Ni  Ni251  1  0.66666667  0.91384933  0.22883313  1.0
  Ni  Ni252  1  0.16666667  0.21042067  0.23581413  1.0
  Ni  Ni253  1  0.16666667  0.54375400  0.23581413  1.0
  Ni  Ni254  1  0.16666667  0.87708733  0.23581413  1.0
  Ni  Ni255  1  0.50000000  0.21042067  0.23581413  1.0
  Ni  Ni256  1  0.50000000  0.54375400  0.23581413  1.0
  Ni  Ni257  1  0.50000000  0.87708733  0.23581413  1.0
  Ni  Ni258  1  0.83333333  0.21042067  0.23581413  1.0
  Ni  Ni259  1  0.83333333  0.54375400  0.23581413  1.0
  Ni  Ni260  1  0.83333333  0.87708733  0.23581413  1.0
  Ni  Ni261  1  0.16666667  0.12291267  0.00472863  1.0
  Ni  Ni262  1  0.16666667  0.45624600  0.00472863  1.0
  Ni  Ni263  1  0.16666667  0.78957933  0.00472863  1.0
  Ni  Ni264  1  0.50000000  0.12291267  0.00472863  1.0
  Ni  Ni265  1  0.50000000  0.45624600  0.00472863  1.0
  Ni  Ni266  1  0.50000000  0.78957933  0.00472863  1.0
  Ni  Ni267  1  0.83333333  0.12291267  0.00472863  1.0
  Ni  Ni268  1  0.83333333  0.45624600  0.00472863  1.0
  Ni  Ni269  1  0.83333333  0.78957933  0.00472863  1.0
  V  V270  1  0.25146600  0.22660167  0.41634138  1.0
  V  V271  1  0.25146600  0.55993500  0.41634138  1.0
  V  V272  1  0.25146600  0.89326833  0.41634138  1.0
  V  V273  1  0.58479933  0.22660167  0.41634138  1.0
  V  V274  1  0.58479933  0.55993500  0.41634138  1.0
  V  V275  1  0.58479933  0.89326833  0.41634138  1.0
  V  V276  1  0.91813267  0.22660167  0.41634138  1.0
  V  V277  1  0.91813267  0.55993500  0.41634138  1.0
  V  V278  1  0.91813267  0.89326833  0.41634138  1.0
  V  V279  1  0.25146600  0.10673167  0.32420138  1.0
  V  V280  1  0.25146600  0.44006500  0.32420138  1.0
  V  V281  1  0.25146600  0.77339833  0.32420138  1.0
  V  V282  1  0.58479933  0.10673167  0.32420138  1.0
  V  V283  1  0.58479933  0.44006500  0.32420138  1.0
  V  V284  1  0.58479933  0.77339833  0.32420138  1.0
  V  V285  1  0.91813267  0.10673167  0.32420138  1.0
  V  V286  1  0.91813267  0.44006500  0.32420138  1.0
  V  V287  1  0.91813267  0.77339833  0.32420138  1.0
  V  V288  1  0.08482867  0.27248900  0.28974862  1.0
  V  V289  1  0.08482867  0.60582233  0.28974862  1.0
  V  V290  1  0.08482867  0.93915567  0.28974862  1.0
  V  V291  1  0.41816200  0.27248900  0.28974862  1.0
  V  V292  1  0.41816200  0.60582233  0.28974862  1.0
  V  V293  1  0.41816200  0.93915567  0.28974862  1.0
  V  V294  1  0.75149533  0.27248900  0.28974862  1.0
  V  V295  1  0.75149533  0.60582233  0.28974862  1.0
  V  V296  1  0.75149533  0.93915567  0.28974862  1.0
  V  V297  1  0.08482867  0.06084433  0.45079412  1.0
  V  V298  1  0.08482867  0.39417767  0.45079412  1.0
  V  V299  1  0.08482867  0.72751100  0.45079412  1.0
  V  V300  1  0.41816200  0.06084433  0.45079412  1.0
  V  V301  1  0.41816200  0.39417767  0.45079412  1.0
  V  V302  1  0.41816200  0.72751100  0.45079412  1.0
  V  V303  1  0.75149533  0.06084433  0.45079412  1.0
  V  V304  1  0.75149533  0.39417767  0.45079412  1.0
  V  V305  1  0.75149533  0.72751100  0.45079412  1.0
  V  V306  1  0.08186733  0.10673167  0.32420138  1.0
  V  V307  1  0.08186733  0.44006500  0.32420138  1.0
  V  V308  1  0.08186733  0.77339833  0.32420138  1.0
  V  V309  1  0.41520067  0.10673167  0.32420138  1.0
  V  V310  1  0.41520067  0.44006500  0.32420138  1.0
  V  V311  1  0.41520067  0.77339833  0.32420138  1.0
  V  V312  1  0.74853400  0.10673167  0.32420138  1.0
  V  V313  1  0.74853400  0.44006500  0.32420138  1.0
  V  V314  1  0.74853400  0.77339833  0.32420138  1.0
  V  V315  1  0.08186733  0.22660167  0.41634138  1.0
  V  V316  1  0.08186733  0.55993500  0.41634138  1.0
  V  V317  1  0.08186733  0.89326833  0.41634138  1.0
  V  V318  1  0.41520067  0.22660167  0.41634138  1.0
  V  V319  1  0.41520067  0.55993500  0.41634138  1.0
  V  V320  1  0.41520067  0.89326833  0.41634138  1.0
  V  V321  1  0.74853400  0.22660167  0.41634138  1.0
  V  V322  1  0.74853400  0.55993500  0.41634138  1.0
  V  V323  1  0.74853400  0.89326833  0.41634138  1.0
  V  V324  1  0.24850467  0.06084433  0.45079412  1.0
  V  V325  1  0.24850467  0.39417767  0.45079412  1.0
  V  V326  1  0.24850467  0.72751100  0.45079412  1.0
  V  V327  1  0.58183800  0.06084433  0.45079412  1.0
  V  V328  1  0.58183800  0.39417767  0.45079412  1.0
  V  V329  1  0.58183800  0.72751100  0.45079412  1.0
  V  V330  1  0.91517133  0.06084433  0.45079412  1.0
  V  V331  1  0.91517133  0.39417767  0.45079412  1.0
  V  V332  1  0.91517133  0.72751100  0.45079412  1.0
  V  V333  1  0.24850467  0.27248900  0.28974862  1.0
  V  V334  1  0.24850467  0.60582233  0.28974862  1.0
  V  V335  1  0.24850467  0.93915567  0.28974862  1.0
  V  V336  1  0.58183800  0.27248900  0.28974862  1.0
  V  V337  1  0.58183800  0.60582233  0.28974862  1.0
  V  V338  1  0.58183800  0.93915567  0.28974862  1.0
  V  V339  1  0.91517133  0.27248900  0.28974862  1.0
  V  V340  1  0.91517133  0.60582233  0.28974862  1.0
  V  V341  1  0.91517133  0.93915567  0.28974862  1.0
  V  V342  1  0.16666667  0.29888867  0.46880113  1.0
  V  V343  1  0.16666667  0.63222200  0.46880113  1.0
  V  V344  1  0.16666667  0.96555533  0.46880113  1.0
  V  V345  1  0.50000000  0.29888867  0.46880113  1.0
  V  V346  1  0.50000000  0.63222200  0.46880113  1.0
  V  V347  1  0.50000000  0.96555533  0.46880113  1.0
  V  V348  1  0.83333333  0.29888867  0.46880113  1.0
  V  V349  1  0.83333333  0.63222200  0.46880113  1.0
  V  V350  1  0.83333333  0.96555533  0.46880113  1.0
  V  V351  1  0.16666667  0.03444467  0.27174163  1.0
  V  V352  1  0.16666667  0.36777800  0.27174163  1.0
  V  V353  1  0.16666667  0.70111133  0.27174163  1.0
  V  V354  1  0.50000000  0.03444467  0.27174162  1.0
  V  V355  1  0.50000000  0.36777800  0.27174163  1.0
  V  V356  1  0.50000000  0.70111133  0.27174163  1.0
  V  V357  1  0.83333333  0.03444467  0.27174162  1.0
  V  V358  1  0.83333333  0.36777800  0.27174163  1.0
  V  V359  1  0.83333333  0.70111133  0.27174163  1.0
  V  V360  1  0.00000000  0.20222067  0.34274763  1.0
  V  V361  1  0.00000000  0.53555400  0.34274763  1.0
  V  V362  1  0.00000000  0.86888733  0.34274763  1.0
  V  V363  1  0.33333333  0.20222067  0.34274763  1.0
  V  V364  1  0.33333333  0.53555400  0.34274763  1.0
  V  V365  1  0.33333333  0.86888733  0.34274763  1.0
  V  V366  1  0.66666667  0.20222067  0.34274763  1.0
  V  V367  1  0.66666667  0.53555400  0.34274763  1.0
  V  V368  1  0.66666667  0.86888733  0.34274763  1.0
  V  V369  1  0.00000000  0.13111267  0.39779513  1.0
  V  V370  1  0.00000000  0.46444600  0.39779513  1.0
  V  V371  1  0.00000000  0.79777933  0.39779513  1.0
  V  V372  1  0.33333333  0.13111267  0.39779513  1.0
  V  V373  1  0.33333333  0.46444600  0.39779513  1.0
  V  V374  1  0.33333333  0.79777933  0.39779513  1.0
  V  V375  1  0.66666667  0.13111267  0.39779513  1.0
  V  V376  1  0.66666667  0.46444600  0.39779513  1.0
  V  V377  1  0.66666667  0.79777933  0.39779513  1.0
  V  V378  1  0.00000000  0.29158200  0.36157738  1.0
  V  V379  1  0.00000000  0.62491533  0.36157738  1.0
  V  V380  1  0.00000000  0.95824867  0.36157738  1.0
  V  V381  1  0.33333333  0.29158200  0.36157737  1.0
  V  V382  1  0.33333333  0.62491533  0.36157738  1.0
  V  V383  1  0.33333333  0.95824867  0.36157738  1.0
  V  V384  1  0.66666667  0.29158200  0.36157737  1.0
  V  V385  1  0.66666667  0.62491533  0.36157738  1.0
  V  V386  1  0.66666667  0.95824867  0.36157738  1.0
  V  V387  1  0.00000000  0.04175133  0.37896538  1.0
  V  V388  1  0.00000000  0.37508467  0.37896538  1.0
  V  V389  1  0.00000000  0.70841800  0.37896538  1.0
  V  V390  1  0.33333333  0.04175133  0.37896537  1.0
  V  V391  1  0.33333333  0.37508467  0.37896538  1.0
  V  V392  1  0.33333333  0.70841800  0.37896538  1.0
  V  V393  1  0.66666667  0.04175133  0.37896537  1.0
  V  V394  1  0.66666667  0.37508467  0.37896538  1.0
  V  V395  1  0.66666667  0.70841800  0.37896538  1.0
  V  V396  1  0.16666667  0.01190033  0.33868113  1.0
  V  V397  1  0.16666667  0.34523367  0.33868113  1.0
  V  V398  1  0.16666667  0.67856700  0.33868113  1.0
  V  V399  1  0.50000000  0.01190033  0.33868112  1.0
  V  V400  1  0.50000000  0.34523367  0.33868113  1.0
  V  V401  1  0.50000000  0.67856700  0.33868113  1.0
  V  V402  1  0.83333333  0.01190033  0.33868112  1.0
  V  V403  1  0.83333333  0.34523367  0.33868113  1.0
  V  V404  1  0.83333333  0.67856700  0.33868113  1.0
  V  V405  1  0.16666667  0.32143300  0.40186163  1.0
  V  V406  1  0.16666667  0.65476633  0.40186163  1.0
  V  V407  1  0.16666667  0.98809967  0.40186163  1.0
  V  V408  1  0.50000000  0.32143300  0.40186163  1.0
  V  V409  1  0.50000000  0.65476633  0.40186163  1.0
  V  V410  1  0.50000000  0.98809967  0.40186163  1.0
  V  V411  1  0.83333333  0.32143300  0.40186163  1.0
  V  V412  1  0.83333333  0.65476633  0.40186163  1.0
  V  V413  1  0.83333333  0.98809967  0.40186163  1.0
  V  V414  1  0.00000000  0.17807033  0.27576587  1.0
  V  V415  1  0.00000000  0.51140367  0.27576587  1.0
  V  V416  1  0.00000000  0.84473700  0.27576588  1.0
  V  V417  1  0.33333333  0.17807033  0.27576587  1.0
  V  V418  1  0.33333333  0.51140367  0.27576587  1.0
  V  V419  1  0.33333333  0.84473700  0.27576587  1.0
  V  V420  1  0.66666667  0.17807033  0.27576587  1.0
  V  V421  1  0.66666667  0.51140367  0.27576587  1.0
  V  V422  1  0.66666667  0.84473700  0.27576587  1.0
  V  V423  1  0.00000000  0.15526300  0.46477687  1.0
  V  V424  1  0.00000000  0.48859633  0.46477687  1.0
  V  V425  1  0.00000000  0.82192967  0.46477687  1.0
  V  V426  1  0.33333333  0.15526300  0.46477687  1.0
  V  V427  1  0.33333333  0.48859633  0.46477687  1.0
  V  V428  1  0.33333333  0.82192967  0.46477687  1.0
  V  V429  1  0.66666667  0.15526300  0.46477687  1.0
  V  V430  1  0.66666667  0.48859633  0.46477687  1.0
  V  V431  1  0.66666667  0.82192967  0.46477687  1.0
  Ni  Ni432  1  0.16666667  0.16666667  0.37027137  1.0
  Ni  Ni433  1  0.16666667  0.50000000  0.37027137  1.0
  Ni  Ni434  1  0.16666667  0.83333333  0.37027138  1.0
  Ni  Ni435  1  0.50000000  0.16666667  0.37027137  1.0
  Ni  Ni436  1  0.50000000  0.50000000  0.37027137  1.0
  Ni  Ni437  1  0.50000000  0.83333333  0.37027137  1.0
  Ni  Ni438  1  0.83333333  0.16666667  0.37027137  1.0
  Ni  Ni439  1  0.83333333  0.50000000  0.37027137  1.0
  Ni  Ni440  1  0.83333333  0.83333333  0.37027137  1.0
  Ni  Ni441  1  0.00000000  0.00000000  0.49527138  1.0
  Ni  Ni442  1  0.00000000  0.33333333  0.49527137  1.0
  Ni  Ni443  1  0.00000000  0.66666667  0.49527138  1.0
  Ni  Ni444  1  0.33333333  0.00000000  0.49527138  1.0
  Ni  Ni445  1  0.33333333  0.33333333  0.49527137  1.0
  Ni  Ni446  1  0.33333333  0.66666667  0.49527138  1.0
  Ni  Ni447  1  0.66666667  0.00000000  0.49527138  1.0
  Ni  Ni448  1  0.66666667  0.33333333  0.49527138  1.0
  Ni  Ni449  1  0.66666667  0.66666667  0.49527138  1.0
  Ni  Ni450  1  0.16666667  0.18827233  0.30507413  1.0
  Ni  Ni451  1  0.16666667  0.52160567  0.30507413  1.0
  Ni  Ni452  1  0.16666667  0.85493900  0.30507413  1.0
  Ni  Ni453  1  0.50000000  0.18827233  0.30507413  1.0
  Ni  Ni454  1  0.50000000  0.52160567  0.30507413  1.0
  Ni  Ni455  1  0.50000000  0.85493900  0.30507413  1.0
  Ni  Ni456  1  0.83333333  0.18827233  0.30507413  1.0
  Ni  Ni457  1  0.83333333  0.52160567  0.30507413  1.0
  Ni  Ni458  1  0.83333333  0.85493900  0.30507413  1.0
  Ni  Ni459  1  0.16666667  0.14506100  0.43546862  1.0
  Ni  Ni460  1  0.16666667  0.47839433  0.43546862  1.0
  Ni  Ni461  1  0.16666667  0.81172767  0.43546862  1.0
  Ni  Ni462  1  0.50000000  0.14506100  0.43546862  1.0
  Ni  Ni463  1  0.50000000  0.47839433  0.43546862  1.0
  Ni  Ni464  1  0.50000000  0.81172767  0.43546862  1.0
  Ni  Ni465  1  0.83333333  0.14506100  0.43546862  1.0
  Ni  Ni466  1  0.83333333  0.47839433  0.43546862  1.0
  Ni  Ni467  1  0.83333333  0.81172767  0.43546862  1.0
  Ni  Ni468  1  0.00000000  0.31173267  0.43069488  1.0
  Ni  Ni469  1  0.00000000  0.64506600  0.43069487  1.0
  Ni  Ni470  1  0.00000000  0.97839933  0.43069487  1.0
  Ni  Ni471  1  0.33333333  0.31173267  0.43069488  1.0
  Ni  Ni472  1  0.33333333  0.64506600  0.43069487  1.0
  Ni  Ni473  1  0.33333333  0.97839933  0.43069487  1.0
  Ni  Ni474  1  0.66666667  0.31173267  0.43069488  1.0
  Ni  Ni475  1  0.66666667  0.64506600  0.43069487  1.0
  Ni  Ni476  1  0.66666667  0.97839933  0.43069487  1.0
  Ni  Ni477  1  0.00000000  0.02160067  0.30984787  1.0
  Ni  Ni478  1  0.00000000  0.35493400  0.30984788  1.0
  Ni  Ni479  1  0.00000000  0.68826733  0.30984788  1.0
  Ni  Ni480  1  0.33333333  0.02160067  0.30984787  1.0
  Ni  Ni481  1  0.33333333  0.35493400  0.30984788  1.0
  Ni  Ni482  1  0.33333333  0.68826733  0.30984788  1.0
  Ni  Ni483  1  0.66666667  0.02160067  0.30984787  1.0
  Ni  Ni484  1  0.66666667  0.35493400  0.30984787  1.0
  Ni  Ni485  1  0.66666667  0.68826733  0.30984788  1.0
  Ni  Ni486  1  0.16666667  0.25225567  0.35405613  1.0
  Ni  Ni487  1  0.16666667  0.58558900  0.35405613  1.0
  Ni  Ni488  1  0.16666667  0.91892233  0.35405613  1.0
  Ni  Ni489  1  0.50000000  0.25225567  0.35405612  1.0
  Ni  Ni490  1  0.50000000  0.58558900  0.35405613  1.0
  Ni  Ni491  1  0.50000000  0.91892233  0.35405613  1.0
  Ni  Ni492  1  0.83333333  0.25225567  0.35405612  1.0
  Ni  Ni493  1  0.83333333  0.58558900  0.35405613  1.0
  Ni  Ni494  1  0.83333333  0.91892233  0.35405613  1.0
  Ni  Ni495  1  0.16666667  0.08107767  0.38648662  1.0
  Ni  Ni496  1  0.16666667  0.41441100  0.38648662  1.0
  Ni  Ni497  1  0.16666667  0.74774433  0.38648662  1.0
  Ni  Ni498  1  0.50000000  0.08107767  0.38648662  1.0
  Ni  Ni499  1  0.50000000  0.41441100  0.38648662  1.0
  Ni  Ni500  1  0.50000000  0.74774433  0.38648662  1.0
  Ni  Ni501  1  0.83333333  0.08107767  0.38648662  1.0
  Ni  Ni502  1  0.83333333  0.41441100  0.38648662  1.0
  Ni  Ni503  1  0.83333333  0.74774433  0.38648662  1.0
  Ni  Ni504  1  0.00000000  0.08615067  0.26170963  1.0
  Ni  Ni505  1  0.00000000  0.41948400  0.26170963  1.0
  Ni  Ni506  1  0.00000000  0.75281733  0.26170963  1.0
  Ni  Ni507  1  0.33333333  0.08615067  0.26170963  1.0
  Ni  Ni508  1  0.33333333  0.41948400  0.26170963  1.0
  Ni  Ni509  1  0.33333333  0.75281733  0.26170963  1.0
  Ni  Ni510  1  0.66666667  0.08615067  0.26170963  1.0
  Ni  Ni511  1  0.66666667  0.41948400  0.26170963  1.0
  Ni  Ni512  1  0.66666667  0.75281733  0.26170963  1.0
  Ni  Ni513  1  0.00000000  0.24718267  0.47883313  1.0
  Ni  Ni514  1  0.00000000  0.58051600  0.47883313  1.0
  Ni  Ni515  1  0.00000000  0.91384933  0.47883313  1.0
  Ni  Ni516  1  0.33333333  0.24718267  0.47883313  1.0
  Ni  Ni517  1  0.33333333  0.58051600  0.47883312  1.0
  Ni  Ni518  1  0.33333333  0.91384933  0.47883313  1.0
  Ni  Ni519  1  0.66666667  0.24718267  0.47883313  1.0
  Ni  Ni520  1  0.66666667  0.58051600  0.47883313  1.0
  Ni  Ni521  1  0.66666667  0.91384933  0.47883313  1.0
  Ni  Ni522  1  0.16666667  0.21042067  0.48581413  1.0
  Ni  Ni523  1  0.16666667  0.54375400  0.48581413  1.0
  Ni  Ni524  1  0.16666667  0.87708733  0.48581413  1.0
  Ni  Ni525  1  0.50000000  0.21042067  0.48581413  1.0
  Ni  Ni526  1  0.50000000  0.54375400  0.48581413  1.0
  Ni  Ni527  1  0.50000000  0.87708733  0.48581413  1.0
  Ni  Ni528  1  0.83333333  0.21042067  0.48581413  1.0
  Ni  Ni529  1  0.83333333  0.54375400  0.48581413  1.0
  Ni  Ni530  1  0.83333333  0.87708733  0.48581413  1.0
  Ni  Ni531  1  0.16666667  0.12291267  0.25472863  1.0
  Ni  Ni532  1  0.16666667  0.45624600  0.25472863  1.0
  Ni  Ni533  1  0.16666667  0.78957933  0.25472863  1.0
  Ni  Ni534  1  0.50000000  0.12291267  0.25472863  1.0
  Ni  Ni535  1  0.50000000  0.45624600  0.25472863  1.0
  Ni  Ni536  1  0.50000000  0.78957933  0.25472863  1.0
  Ni  Ni537  1  0.83333333  0.12291267  0.25472862  1.0
  Ni  Ni538  1  0.83333333  0.45624600  0.25472863  1.0
  Ni  Ni539  1  0.83333333  0.78957933  0.25472863  1.0
