# generated using pymatgen
data_V3Ni
_symmetry_space_group_name_H-M   'P 1'
_cell_length_a   19.81168527
_cell_length_b   24.26425993
_cell_length_c   26.82514866
_cell_angle_alpha   95.76818119
_cell_angle_beta   90.00000000
_cell_angle_gamma   90.00000000
_symmetry_Int_Tables_number   1
_chemical_formula_structural   V3Ni
_chemical_formula_sum   'V324 Ni108'
_cell_volume   12829.98201967
_cell_formula_units_Z   108
loop_
 _symmetry_equiv_pos_site_id
 _symmetry_equiv_pos_as_xyz
  1  'x, y, z'
loop_
 _atom_site_type_symbol
 _atom_site_label
 _atom_site_symmetry_multiplicity
 _atom_site_fract_x
 _atom_site_fract_y
 _atom_site_fract_z
 _atom_site_occupancy
  Ni  Ni0  1  0.33333333  0.25595238  0.86607143  1.0
  Ni  Ni1  1  0.33333333  0.58928571  0.86607143  1.0
  Ni  Ni2  1  0.33333333  0.92261905  0.86607143  1.0
  Ni  Ni3  1  0.66666667  0.25595238  0.86607143  1.0
  Ni  Ni4  1  0.66666667  0.58928571  0.86607143  1.0
  Ni  Ni5  1  0.66666667  0.92261905  0.86607143  1.0
  Ni  Ni6  1  0.00000000  0.25595238  0.86607143  1.0
  Ni  Ni7  1  0.00000000  0.58928571  0.86607143  1.0
  Ni  Ni8  1  1.00000000  0.92261905  0.86607143  1.0
  Ni  Ni9  1  0.16666667  0.04166667  0.93750000  1.0
  Ni  Ni10  1  0.16666667  0.37500000  0.93750000  1.0
  Ni  Ni11  1  0.16666667  0.70833333  0.93750000  1.0
  Ni  Ni12  1  0.50000000  0.04166667  0.93750000  1.0
  Ni  Ni13  1  0.50000000  0.37500000  0.93750000  1.0
  Ni  Ni14  1  0.50000000  0.70833333  0.93750000  1.0
  Ni  Ni15  1  0.83333333  0.04166667  0.93750000  1.0
  Ni  Ni16  1  0.83333333  0.37500000  0.93750000  1.0
  Ni  Ni17  1  0.83333333  0.70833333  0.93750000  1.0
  Ni  Ni18  1  0.00000000  0.08928571  0.86607143  1.0
  Ni  Ni19  1  0.00000000  0.42261905  0.86607143  1.0
  Ni  Ni20  1  0.00000000  0.75595238  0.86607143  1.0
  Ni  Ni21  1  0.33333333  0.08928571  0.86607143  1.0
  Ni  Ni22  1  0.33333333  0.42261905  0.86607143  1.0
  Ni  Ni23  1  0.33333333  0.75595238  0.86607143  1.0
  Ni  Ni24  1  0.66666667  0.08928571  0.86607143  1.0
  Ni  Ni25  1  0.66666667  0.42261905  0.86607143  1.0
  Ni  Ni26  1  0.66666667  0.75595238  0.86607143  1.0
  Ni  Ni27  1  0.16666667  0.20833333  0.93750000  1.0
  Ni  Ni28  1  0.16666667  0.54166667  0.93750000  1.0
  Ni  Ni29  1  0.16666667  0.87500000  0.93750000  1.0
  Ni  Ni30  1  0.50000000  0.20833333  0.93750000  1.0
  Ni  Ni31  1  0.50000000  0.54166667  0.93750000  1.0
  Ni  Ni32  1  0.50000000  0.87500000  0.93750000  1.0
  Ni  Ni33  1  0.83333333  0.20833333  0.93750000  1.0
  Ni  Ni34  1  0.83333333  0.54166667  0.93750000  1.0
  Ni  Ni35  1  0.83333333  0.87500000  0.93750000  1.0
  Ni  Ni36  1  0.00000000  0.01785714  0.72321429  1.0
  Ni  Ni37  1  0.00000000  0.35119048  0.72321429  1.0
  Ni  Ni38  1  0.00000000  0.68452381  0.72321429  1.0
  Ni  Ni39  1  0.33333333  0.01785714  0.72321429  1.0
  Ni  Ni40  1  0.33333333  0.35119048  0.72321429  1.0
  Ni  Ni41  1  0.33333333  0.68452381  0.72321429  1.0
  Ni  Ni42  1  0.66666667  0.01785714  0.72321429  1.0
  Ni  Ni43  1  0.66666667  0.35119048  0.72321429  1.0
  Ni  Ni44  1  0.66666667  0.68452381  0.72321429  1.0
  Ni  Ni45  1  0.16666667  0.13690476  0.79464286  1.0
  Ni  Ni46  1  0.16666667  0.47023810  0.79464286  1.0
  Ni  Ni47  1  0.16666667  0.80357143  0.79464286  1.0
  Ni  Ni48  1  0.50000000  0.13690476  0.79464286  1.0
  Ni  Ni49  1  0.50000000  0.47023810  0.79464286  1.0
  Ni  Ni50  1  0.50000000  0.80357143  0.79464286  1.0
  Ni  Ni51  1  0.83333333  0.13690476  0.79464286  1.0
  Ni  Ni52  1  0.83333333  0.47023810  0.79464286  1.0
  Ni  Ni53  1  0.83333333  0.80357143  0.79464286  1.0
  Ni  Ni54  1  0.00000000  0.18452381  0.72321429  1.0
  Ni  Ni55  1  0.00000000  0.51785714  0.72321429  1.0
  Ni  Ni56  1  0.00000000  0.85119048  0.72321429  1.0
  Ni  Ni57  1  0.33333333  0.18452381  0.72321429  1.0
  Ni  Ni58  1  0.33333333  0.51785714  0.72321429  1.0
  Ni  Ni59  1  0.33333333  0.85119048  0.72321429  1.0
  Ni  Ni60  1  0.66666667  0.18452381  0.72321429  1.0
  Ni  Ni61  1  0.66666667  0.51785714  0.72321429  1.0
  Ni  Ni62  1  0.66666667  0.85119048  0.72321429  1.0
  Ni  Ni63  1  0.16666667  0.30357143  0.79464286  1.0
  Ni  Ni64  1  0.16666667  0.63690476  0.79464286  1.0
  Ni  Ni65  1  0.16666667  0.97023810  0.79464286  1.0
  Ni  Ni66  1  0.50000000  0.30357143  0.79464286  1.0
  Ni  Ni67  1  0.50000000  0.63690476  0.79464286  1.0
  Ni  Ni68  1  0.50000000  0.97023810  0.79464286  1.0
  Ni  Ni69  1  0.83333333  0.30357143  0.79464286  1.0
  Ni  Ni70  1  0.83333333  0.63690476  0.79464286  1.0
  Ni  Ni71  1  0.83333333  0.97023810  0.79464286  1.0
  Ni  Ni72  1  0.33333333  0.11309524  0.58035714  1.0
  Ni  Ni73  1  0.33333333  0.44642857  0.58035714  1.0
  Ni  Ni74  1  0.33333333  0.77976190  0.58035714  1.0
  Ni  Ni75  1  0.66666667  0.11309524  0.58035714  1.0
  Ni  Ni76  1  0.66666667  0.44642857  0.58035714  1.0
  Ni  Ni77  1  0.66666667  0.77976190  0.58035714  1.0
  Ni  Ni78  1  0.00000000  0.11309524  0.58035714  1.0
  Ni  Ni79  1  0.00000000  0.44642857  0.58035714  1.0
  Ni  Ni80  1  1.00000000  0.77976190  0.58035714  1.0
  Ni  Ni81  1  0.16666667  0.23214286  0.65178571  1.0
  Ni  Ni82  1  0.16666667  0.56547619  0.65178571  1.0
  Ni  Ni83  1  0.16666667  0.89880952  0.65178571  1.0
  Ni  Ni84  1  0.50000000  0.23214286  0.65178571  1.0
  Ni  Ni85  1  0.50000000  0.56547619  0.65178571  1.0
  Ni  Ni86  1  0.50000000  0.89880952  0.65178571  1.0
  Ni  Ni87  1  0.83333333  0.23214286  0.65178571  1.0
  Ni  Ni88  1  0.83333333  0.56547619  0.65178571  1.0
  Ni  Ni89  1  0.83333333  0.89880952  0.65178571  1.0
  Ni  Ni90  1  0.00000000  0.27976190  0.58035714  1.0
  Ni  Ni91  1  0.00000000  0.61309524  0.58035714  1.0
  Ni  Ni92  1  0.00000000  0.94642857  0.58035714  1.0
  Ni  Ni93  1  0.33333333  0.27976190  0.58035714  1.0
  Ni  Ni94  1  0.33333333  0.61309524  0.58035714  1.0
  Ni  Ni95  1  0.33333333  0.94642857  0.58035714  1.0
  Ni  Ni96  1  0.66666667  0.27976190  0.58035714  1.0
  Ni  Ni97  1  0.66666667  0.61309524  0.58035714  1.0
  Ni  Ni98  1  0.66666667  0.94642857  0.58035714  1.0
  Ni  Ni99  1  0.16666667  0.06547619  0.65178571  1.0
  Ni  Ni100  1  0.16666667  0.39880952  0.65178571  1.0
  Ni  Ni101  1  0.16666667  0.73214286  0.65178571  1.0
  Ni  Ni102  1  0.50000000  0.06547619  0.65178571  1.0
  Ni  Ni103  1  0.50000000  0.39880952  0.65178571  1.0
  Ni  Ni104  1  0.50000000  0.73214286  0.65178571  1.0
  Ni  Ni105  1  0.83333333  0.06547619  0.65178571  1.0
  Ni  Ni106  1  0.83333333  0.39880952  0.65178571  1.0
  Ni  Ni107  1  0.83333333  0.73214286  0.65178571  1.0
  V  V108  1  0.04166667  0.01190476  0.91964286  1.0
  V  V109  1  0.04166667  0.34523810  0.91964286  1.0
  V  V110  1  0.04166667  0.67857143  0.91964286  1.0
  V  V111  1  0.37500000  0.01190476  0.91964286  1.0
  V  V112  1  0.37500000  0.34523810  0.91964286  1.0
  V  V113  1  0.37500000  0.67857143  0.91964286  1.0
  V  V114  1  0.70833333  0.01190476  0.91964286  1.0
  V  V115  1  0.70833333  0.34523810  0.91964286  1.0
  V  V116  1  0.70833333  0.67857143  0.91964286  1.0
  V  V117  1  0.20833333  0.13095238  0.99107143  1.0
  V  V118  1  0.20833333  0.46428571  0.99107143  1.0
  V  V119  1  0.20833333  0.79761905  0.99107143  1.0
  V  V120  1  0.54166667  0.13095238  0.99107143  1.0
  V  V121  1  0.54166667  0.46428571  0.99107143  1.0
  V  V122  1  0.54166667  0.79761905  0.99107143  1.0
  V  V123  1  0.87500000  0.13095238  0.99107143  1.0
  V  V124  1  0.87500000  0.46428571  0.99107143  1.0
  V  V125  1  0.87500000  0.79761905  0.99107143  1.0
  V  V126  1  0.12500000  0.28571429  0.88392857  1.0
  V  V127  1  0.12500000  0.61904762  0.88392857  1.0
  V  V128  1  0.12500000  0.95238095  0.88392857  1.0
  V  V129  1  0.45833333  0.28571429  0.88392857  1.0
  V  V130  1  0.45833333  0.61904762  0.88392857  1.0
  V  V131  1  0.45833333  0.95238095  0.88392857  1.0
  V  V132  1  0.79166667  0.28571429  0.88392857  1.0
  V  V133  1  0.79166667  0.61904762  0.88392857  1.0
  V  V134  1  0.79166667  0.95238095  0.88392857  1.0
  V  V135  1  0.29166667  0.07142857  0.95535714  1.0
  V  V136  1  0.29166667  0.40476190  0.95535714  1.0
  V  V137  1  0.29166667  0.73809524  0.95535714  1.0
  V  V138  1  0.62500000  0.07142857  0.95535714  1.0
  V  V139  1  0.62500000  0.40476190  0.95535714  1.0
  V  V140  1  0.62500000  0.73809524  0.95535714  1.0
  V  V141  1  0.95833333  0.07142857  0.95535714  1.0
  V  V142  1  0.95833333  0.40476190  0.95535714  1.0
  V  V143  1  0.95833333  0.73809524  0.95535714  1.0
  V  V144  1  0.25000000  0.29166667  0.93750000  1.0
  V  V145  1  0.25000000  0.62500000  0.93750000  1.0
  V  V146  1  0.25000000  0.95833333  0.93750000  1.0
  V  V147  1  0.58333333  0.29166667  0.93750000  1.0
  V  V148  1  0.58333333  0.62500000  0.93750000  1.0
  V  V149  1  0.58333333  0.95833333  0.93750000  1.0
  V  V150  1  0.91666667  0.29166667  0.93750000  1.0
  V  V151  1  0.91666667  0.62500000  0.93750000  1.0
  V  V152  1  0.91666667  0.95833333  0.93750000  1.0
  V  V153  1  0.08333333  0.17261905  0.86607143  1.0
  V  V154  1  0.08333333  0.50595238  0.86607143  1.0
  V  V155  1  0.08333333  0.83928571  0.86607143  1.0
  V  V156  1  0.41666667  0.17261905  0.86607143  1.0
  V  V157  1  0.41666667  0.50595238  0.86607143  1.0
  V  V158  1  0.41666667  0.83928571  0.86607143  1.0
  V  V159  1  0.75000000  0.17261905  0.86607143  1.0
  V  V160  1  0.75000000  0.50595238  0.86607143  1.0
  V  V161  1  0.75000000  0.83928571  0.86607143  1.0
  V  V162  1  0.25000000  0.00595238  0.86607143  1.0
  V  V163  1  0.25000000  0.33928571  0.86607143  1.0
  V  V164  1  0.25000000  0.67261905  0.86607143  1.0
  V  V165  1  0.58333333  0.00595238  0.86607143  1.0
  V  V166  1  0.58333333  0.33928571  0.86607143  1.0
  V  V167  1  0.58333333  0.67261905  0.86607143  1.0
  V  V168  1  0.91666667  0.00595238  0.86607143  1.0
  V  V169  1  0.91666667  0.33928571  0.86607143  1.0
  V  V170  1  0.91666667  0.67261905  0.86607143  1.0
  V  V171  1  0.08333333  0.12500000  0.93750000  1.0
  V  V172  1  0.08333333  0.45833333  0.93750000  1.0
  V  V173  1  0.08333333  0.79166667  0.93750000  1.0
  V  V174  1  0.41666667  0.12500000  0.93750000  1.0
  V  V175  1  0.41666667  0.45833333  0.93750000  1.0
  V  V176  1  0.41666667  0.79166667  0.93750000  1.0
  V  V177  1  0.75000000  0.12500000  0.93750000  1.0
  V  V178  1  0.75000000  0.45833333  0.93750000  1.0
  V  V179  1  0.75000000  0.79166667  0.93750000  1.0
  V  V180  1  0.04166667  0.23809524  0.95535714  1.0
  V  V181  1  0.04166667  0.57142857  0.95535714  1.0
  V  V182  1  0.04166667  0.90476190  0.95535714  1.0
  V  V183  1  0.37500000  0.23809524  0.95535714  1.0
  V  V184  1  0.37500000  0.57142857  0.95535714  1.0
  V  V185  1  0.37500000  0.90476190  0.95535714  1.0
  V  V186  1  0.70833333  0.23809524  0.95535714  1.0
  V  V187  1  0.70833333  0.57142857  0.95535714  1.0
  V  V188  1  0.70833333  0.90476190  0.95535714  1.0
  V  V189  1  0.20833333  0.11904762  0.88392857  1.0
  V  V190  1  0.20833333  0.45238095  0.88392857  1.0
  V  V191  1  0.20833333  0.78571429  0.88392857  1.0
  V  V192  1  0.54166667  0.11904762  0.88392857  1.0
  V  V193  1  0.54166667  0.45238095  0.88392857  1.0
  V  V194  1  0.54166667  0.78571429  0.88392857  1.0
  V  V195  1  0.87500000  0.11904762  0.88392857  1.0
  V  V196  1  0.87500000  0.45238095  0.88392857  1.0
  V  V197  1  0.87500000  0.78571429  0.88392857  1.0
  V  V198  1  0.29166667  0.17857143  0.91964286  1.0
  V  V199  1  0.29166667  0.51190476  0.91964286  1.0
  V  V200  1  0.29166667  0.84523810  0.91964286  1.0
  V  V201  1  0.62500000  0.17857143  0.91964286  1.0
  V  V202  1  0.62500000  0.51190476  0.91964286  1.0
  V  V203  1  0.62500000  0.84523810  0.91964286  1.0
  V  V204  1  0.95833333  0.17857143  0.91964286  1.0
  V  V205  1  0.95833333  0.51190476  0.91964286  1.0
  V  V206  1  0.95833333  0.84523810  0.91964286  1.0
  V  V207  1  0.12500000  0.29761905  0.99107143  1.0
  V  V208  1  0.12500000  0.63095238  0.99107143  1.0
  V  V209  1  0.12500000  0.96428571  0.99107143  1.0
  V  V210  1  0.45833333  0.29761905  0.99107143  1.0
  V  V211  1  0.45833333  0.63095238  0.99107143  1.0
  V  V212  1  0.45833333  0.96428571  0.99107143  1.0
  V  V213  1  0.79166667  0.29761905  0.99107143  1.0
  V  V214  1  0.79166667  0.63095238  0.99107143  1.0
  V  V215  1  0.79166667  0.96428571  0.99107143  1.0
  V  V216  1  0.04166667  0.10714286  0.77678571  1.0
  V  V217  1  0.04166667  0.44047619  0.77678571  1.0
  V  V218  1  0.04166667  0.77380952  0.77678571  1.0
  V  V219  1  0.37500000  0.10714286  0.77678571  1.0
  V  V220  1  0.37500000  0.44047619  0.77678571  1.0
  V  V221  1  0.37500000  0.77380952  0.77678571  1.0
  V  V222  1  0.70833333  0.10714286  0.77678571  1.0
  V  V223  1  0.70833333  0.44047619  0.77678571  1.0
  V  V224  1  0.70833333  0.77380952  0.77678571  1.0
  V  V225  1  0.20833333  0.22619048  0.84821429  1.0
  V  V226  1  0.20833333  0.55952381  0.84821429  1.0
  V  V227  1  0.20833333  0.89285714  0.84821429  1.0
  V  V228  1  0.54166667  0.22619048  0.84821429  1.0
  V  V229  1  0.54166667  0.55952381  0.84821429  1.0
  V  V230  1  0.54166667  0.89285714  0.84821429  1.0
  V  V231  1  0.87500000  0.22619048  0.84821429  1.0
  V  V232  1  0.87500000  0.55952381  0.84821429  1.0
  V  V233  1  0.87500000  0.89285714  0.84821429  1.0
  V  V234  1  0.12500000  0.04761905  0.74107143  1.0
  V  V235  1  0.12500000  0.38095238  0.74107143  1.0
  V  V236  1  0.12500000  0.71428571  0.74107143  1.0
  V  V237  1  0.45833333  0.04761905  0.74107143  1.0
  V  V238  1  0.45833333  0.38095238  0.74107143  1.0
  V  V239  1  0.45833333  0.71428571  0.74107143  1.0
  V  V240  1  0.79166667  0.04761905  0.74107143  1.0
  V  V241  1  0.79166667  0.38095238  0.74107143  1.0
  V  V242  1  0.79166667  0.71428571  0.74107143  1.0
  V  V243  1  0.29166667  0.16666667  0.81250000  1.0
  V  V244  1  0.29166667  0.50000000  0.81250000  1.0
  V  V245  1  0.29166667  0.83333333  0.81250000  1.0
  V  V246  1  0.62500000  0.16666667  0.81250000  1.0
  V  V247  1  0.62500000  0.50000000  0.81250000  1.0
  V  V248  1  0.62500000  0.83333333  0.81250000  1.0
  V  V249  1  0.95833333  0.16666667  0.81250000  1.0
  V  V250  1  0.95833333  0.50000000  0.81250000  1.0
  V  V251  1  0.95833333  0.83333333  0.81250000  1.0
  V  V252  1  0.25000000  0.05357143  0.79464286  1.0
  V  V253  1  0.25000000  0.38690476  0.79464286  1.0
  V  V254  1  0.25000000  0.72023810  0.79464286  1.0
  V  V255  1  0.58333333  0.05357143  0.79464286  1.0
  V  V256  1  0.58333333  0.38690476  0.79464286  1.0
  V  V257  1  0.58333333  0.72023810  0.79464286  1.0
  V  V258  1  0.91666667  0.05357143  0.79464286  1.0
  V  V259  1  0.91666667  0.38690476  0.79464286  1.0
  V  V260  1  0.91666667  0.72023810  0.79464286  1.0
  V  V261  1  0.08333333  0.26785714  0.72321429  1.0
  V  V262  1  0.08333333  0.60119048  0.72321429  1.0
  V  V263  1  0.08333333  0.93452381  0.72321429  1.0
  V  V264  1  0.41666667  0.26785714  0.72321429  1.0
  V  V265  1  0.41666667  0.60119048  0.72321429  1.0
  V  V266  1  0.41666667  0.93452381  0.72321429  1.0
  V  V267  1  0.75000000  0.26785714  0.72321429  1.0
  V  V268  1  0.75000000  0.60119048  0.72321429  1.0
  V  V269  1  0.75000000  0.93452381  0.72321429  1.0
  V  V270  1  0.25000000  0.10119048  0.72321429  1.0
  V  V271  1  0.25000000  0.43452381  0.72321429  1.0
  V  V272  1  0.25000000  0.76785714  0.72321429  1.0
  V  V273  1  0.58333333  0.10119048  0.72321429  1.0
  V  V274  1  0.58333333  0.43452381  0.72321429  1.0
  V  V275  1  0.58333333  0.76785714  0.72321429  1.0
  V  V276  1  0.91666667  0.10119048  0.72321429  1.0
  V  V277  1  0.91666667  0.43452381  0.72321429  1.0
  V  V278  1  0.91666667  0.76785714  0.72321429  1.0
  V  V279  1  0.08333333  0.22023810  0.79464286  1.0
  V  V280  1  0.08333333  0.55357143  0.79464286  1.0
  V  V281  1  0.08333333  0.88690476  0.79464286  1.0
  V  V282  1  0.41666667  0.22023810  0.79464286  1.0
  V  V283  1  0.41666667  0.55357143  0.79464286  1.0
  V  V284  1  0.41666667  0.88690476  0.79464286  1.0
  V  V285  1  0.75000000  0.22023810  0.79464286  1.0
  V  V286  1  0.75000000  0.55357143  0.79464286  1.0
  V  V287  1  0.75000000  0.88690476  0.79464286  1.0
  V  V288  1  0.04166667  0.33333333  0.81250000  1.0
  V  V289  1  0.04166667  0.66666667  0.81250000  1.0
  V  V290  1  0.04166667  0.00000000  0.81250000  1.0
  V  V291  1  0.37500000  0.33333333  0.81250000  1.0
  V  V292  1  0.37500000  0.66666667  0.81250000  1.0
  V  V293  1  0.37500000  0.00000000  0.81250000  1.0
  V  V294  1  0.70833333  0.33333333  0.81250000  1.0
  V  V295  1  0.70833333  0.66666667  0.81250000  1.0
  V  V296  1  0.70833333  0.00000000  0.81250000  1.0
  V  V297  1  0.20833333  0.21428571  0.74107143  1.0
  V  V298  1  0.20833333  0.54761905  0.74107143  1.0
  V  V299  1  0.20833333  0.88095238  0.74107143  1.0
  V  V300  1  0.54166667  0.21428571  0.74107143  1.0
  V  V301  1  0.54166667  0.54761905  0.74107143  1.0
  V  V302  1  0.54166667  0.88095238  0.74107143  1.0
  V  V303  1  0.87500000  0.21428571  0.74107143  1.0
  V  V304  1  0.87500000  0.54761905  0.74107143  1.0
  V  V305  1  0.87500000  0.88095238  0.74107143  1.0
  V  V306  1  0.29166667  0.27380952  0.77678571  1.0
  V  V307  1  0.29166667  0.60714286  0.77678571  1.0
  V  V308  1  0.29166667  0.94047619  0.77678571  1.0
  V  V309  1  0.62500000  0.27380952  0.77678571  1.0
  V  V310  1  0.62500000  0.60714286  0.77678571  1.0
  V  V311  1  0.62500000  0.94047619  0.77678571  1.0
  V  V312  1  0.95833333  0.27380952  0.77678571  1.0
  V  V313  1  0.95833333  0.60714286  0.77678571  1.0
  V  V314  1  0.95833333  0.94047619  0.77678571  1.0
  V  V315  1  0.12500000  0.05952381  0.84821429  1.0
  V  V316  1  0.12500000  0.39285714  0.84821429  1.0
  V  V317  1  0.12500000  0.72619048  0.84821429  1.0
  V  V318  1  0.45833333  0.05952381  0.84821429  1.0
  V  V319  1  0.45833333  0.39285714  0.84821429  1.0
  V  V320  1  0.45833333  0.72619048  0.84821429  1.0
  V  V321  1  0.79166667  0.05952381  0.84821429  1.0
  V  V322  1  0.79166667  0.39285714  0.84821429  1.0
  V  V323  1  0.79166667  0.72619048  0.84821429  1.0
  V  V324  1  0.04166667  0.20238095  0.63392857  1.0
  V  V325  1  0.04166667  0.53571429  0.63392857  1.0
  V  V326  1  0.04166667  0.86904762  0.63392857  1.0
  V  V327  1  0.37500000  0.20238095  0.63392857  1.0
  V  V328  1  0.37500000  0.53571429  0.63392857  1.0
  V  V329  1  0.37500000  0.86904762  0.63392857  1.0
  V  V330  1  0.70833333  0.20238095  0.63392857  1.0
  V  V331  1  0.70833333  0.53571429  0.63392857  1.0
  V  V332  1  0.70833333  0.86904762  0.63392857  1.0
  V  V333  1  0.20833333  0.32142857  0.70535714  1.0
  V  V334  1  0.20833333  0.65476190  0.70535714  1.0
  V  V335  1  0.20833333  0.98809524  0.70535714  1.0
  V  V336  1  0.54166667  0.32142857  0.70535714  1.0
  V  V337  1  0.54166667  0.65476190  0.70535714  1.0
  V  V338  1  0.54166667  0.98809524  0.70535714  1.0
  V  V339  1  0.87500000  0.32142857  0.70535714  1.0
  V  V340  1  0.87500000  0.65476190  0.70535714  1.0
  V  V341  1  0.87500000  0.98809524  0.70535714  1.0
  V  V342  1  0.12500000  0.14285714  0.59821429  1.0
  V  V343  1  0.12500000  0.47619048  0.59821429  1.0
  V  V344  1  0.12500000  0.80952381  0.59821429  1.0
  V  V345  1  0.45833333  0.14285714  0.59821429  1.0
  V  V346  1  0.45833333  0.47619048  0.59821429  1.0
  V  V347  1  0.45833333  0.80952381  0.59821429  1.0
  V  V348  1  0.79166667  0.14285714  0.59821429  1.0
  V  V349  1  0.79166667  0.47619048  0.59821429  1.0
  V  V350  1  0.79166667  0.80952381  0.59821429  1.0
  V  V351  1  0.29166667  0.26190476  0.66964286  1.0
  V  V352  1  0.29166667  0.59523810  0.66964286  1.0
  V  V353  1  0.29166667  0.92857143  0.66964286  1.0
  V  V354  1  0.62500000  0.26190476  0.66964286  1.0
  V  V355  1  0.62500000  0.59523810  0.66964286  1.0
  V  V356  1  0.62500000  0.92857143  0.66964286  1.0
  V  V357  1  0.95833333  0.26190476  0.66964286  1.0
  V  V358  1  0.95833333  0.59523810  0.66964286  1.0
  V  V359  1  0.95833333  0.92857143  0.66964286  1.0
  V  V360  1  0.25000000  0.14880952  0.65178571  1.0
  V  V361  1  0.25000000  0.48214286  0.65178571  1.0
  V  V362  1  0.25000000  0.81547619  0.65178571  1.0
  V  V363  1  0.58333333  0.14880952  0.65178571  1.0
  V  V364  1  0.58333333  0.48214286  0.65178571  1.0
  V  V365  1  0.58333333  0.81547619  0.65178571  1.0
  V  V366  1  0.91666667  0.14880952  0.65178571  1.0
  V  V367  1  0.91666667  0.48214286  0.65178571  1.0
  V  V368  1  0.91666667  0.81547619  0.65178571  1.0
  V  V369  1  0.08333333  0.02976190  0.58035714  1.0
  V  V370  1  0.08333333  0.36309524  0.58035714  1.0
  V  V371  1  0.08333333  0.69642857  0.58035714  1.0
  V  V372  1  0.41666667  0.02976190  0.58035714  1.0
  V  V373  1  0.41666667  0.36309524  0.58035714  1.0
  V  V374  1  0.41666667  0.69642857  0.58035714  1.0
  V  V375  1  0.75000000  0.02976190  0.58035714  1.0
  V  V376  1  0.75000000  0.36309524  0.58035714  1.0
  V  V377  1  0.75000000  0.69642857  0.58035714  1.0
  V  V378  1  0.25000000  0.19642857  0.58035714  1.0
  V  V379  1  0.25000000  0.52976190  0.58035714  1.0
  V  V380  1  0.25000000  0.86309524  0.58035714  1.0
  V  V381  1  0.58333333  0.19642857  0.58035714  1.0
  V  V382  1  0.58333333  0.52976190  0.58035714  1.0
  V  V383  1  0.58333333  0.86309524  0.58035714  1.0
  V  V384  1  0.91666667  0.19642857  0.58035714  1.0
  V  V385  1  0.91666667  0.52976190  0.58035714  1.0
  V  V386  1  0.91666667  0.86309524  0.58035714  1.0
  V  V387  1  0.08333333  0.31547619  0.65178571  1.0
  V  V388  1  0.08333333  0.64880952  0.65178571  1.0
  V  V389  1  0.08333333  0.98214286  0.65178571  1.0
  V  V390  1  0.41666667  0.31547619  0.65178571  1.0
  V  V391  1  0.41666667  0.64880952  0.65178571  1.0
  V  V392  1  0.41666667  0.98214286  0.65178571  1.0
  V  V393  1  0.75000000  0.31547619  0.65178571  1.0
  V  V394  1  0.75000000  0.64880952  0.65178571  1.0
  V  V395  1  0.75000000  0.98214286  0.65178571  1.0
  V  V396  1  0.04166667  0.09523810  0.66964286  1.0
  V  V397  1  0.04166667  0.42857143  0.66964286  1.0
  V  V398  1  0.04166667  0.76190476  0.66964286  1.0
  V  V399  1  0.37500000  0.09523810  0.66964286  1.0
  V  V400  1  0.37500000  0.42857143  0.66964286  1.0
  V  V401  1  0.37500000  0.76190476  0.66964286  1.0
  V  V402  1  0.70833333  0.09523810  0.66964286  1.0
  V  V403  1  0.70833333  0.42857143  0.66964286  1.0
  V  V404  1  0.70833333  0.76190476  0.66964286  1.0
  V  V405  1  0.20833333  0.30952381  0.59821429  1.0
  V  V406  1  0.20833333  0.64285714  0.59821429  1.0
  V  V407  1  0.20833333  0.97619048  0.59821429  1.0
  V  V408  1  0.54166667  0.30952381  0.59821429  1.0
  V  V409  1  0.54166667  0.64285714  0.59821429  1.0
  V  V410  1  0.54166667  0.97619048  0.59821429  1.0
  V  V411  1  0.87500000  0.30952381  0.59821429  1.0
  V  V412  1  0.87500000  0.64285714  0.59821429  1.0
  V  V413  1  0.87500000  0.97619048  0.59821429  1.0
  V  V414  1  0.29166667  0.03571429  0.63392857  1.0
  V  V415  1  0.29166667  0.36904762  0.63392857  1.0
  V  V416  1  0.29166667  0.70238095  0.63392857  1.0
  V  V417  1  0.62500000  0.03571429  0.63392857  1.0
  V  V418  1  0.62500000  0.36904762  0.63392857  1.0
  V  V419  1  0.62500000  0.70238095  0.63392857  1.0
  V  V420  1  0.95833333  0.03571429  0.63392857  1.0
  V  V421  1  0.95833333  0.36904762  0.63392857  1.0
  V  V422  1  0.95833333  0.70238095  0.63392857  1.0
  V  V423  1  0.12500000  0.15476190  0.70535714  1.0
  V  V424  1  0.12500000  0.48809524  0.70535714  1.0
  V  V425  1  0.12500000  0.82142857  0.70535714  1.0
  V  V426  1  0.45833333  0.15476190  0.70535714  1.0
  V  V427  1  0.45833333  0.48809524  0.70535714  1.0
  V  V428  1  0.45833333  0.82142857  0.70535714  1.0
  V  V429  1  0.79166667  0.15476190  0.70535714  1.0
  V  V430  1  0.79166667  0.48809524  0.70535714  1.0
  V  V431  1  0.79166667  0.82142857  0.70535714  1.0
