# generated using pymatgen
data_V3Ni
_symmetry_space_group_name_H-M   'P 1'
_cell_length_a   19.81168527
_cell_length_b   19.81168527
_cell_length_c   46.69659000
_cell_angle_alpha   135.00000000
_cell_angle_beta   135.00000000
_cell_angle_gamma   60.00000000
_symmetry_Int_Tables_number   1
_chemical_formula_structural   V3Ni
_chemical_formula_sum   'V216 Ni72'
_cell_volume   9164.27287119
_cell_formula_units_Z   72
loop_
 _symmetry_equiv_pos_site_id
 _symmetry_equiv_pos_as_xyz
  1  'x, y, z'
loop_
 _atom_site_type_symbol
 _atom_site_label
 _atom_site_symmetry_multiplicity
 _atom_site_fract_x
 _atom_site_fract_y
 _atom_site_fract_z
 _atom_site_occupancy
  V  V0  1  0.08333333  0.00000000  0.06250000  1.0
  V  V1  1  0.08333333  0.33333333  0.06250000  1.0
  V  V2  1  0.08333333  0.66666667  0.06250000  1.0
  V  V3  1  0.41666667  0.00000000  0.06250000  1.0
  V  V4  1  0.41666667  0.33333333  0.06250000  1.0
  V  V5  1  0.41666667  0.66666667  0.06250000  1.0
  V  V6  1  0.75000000  0.00000000  0.06250000  1.0
  V  V7  1  0.75000000  0.33333333  0.06250000  1.0
  V  V8  1  0.75000000  0.66666667  0.06250000  1.0
  V  V9  1  0.25000000  0.00000000  0.01250000  1.0
  V  V10  1  0.25000000  0.33333333  0.01250000  1.0
  V  V11  1  0.25000000  0.66666667  0.01250000  1.0
  V  V12  1  0.58333333  0.00000000  0.01250000  1.0
  V  V13  1  0.58333333  0.33333333  0.01250000  1.0
  V  V14  1  0.58333333  0.66666667  0.01250000  1.0
  V  V15  1  0.91666667  0.00000000  0.01250000  1.0
  V  V16  1  0.91666667  0.33333333  0.01250000  1.0
  V  V17  1  0.91666667  0.66666667  0.01250000  1.0
  V  V18  1  0.00000000  0.16666667  0.06250000  1.0
  V  V19  1  0.00000000  0.50000000  0.06250000  1.0
  V  V20  1  0.00000000  0.83333333  0.06250000  1.0
  V  V21  1  0.33333333  0.16666667  0.06250000  1.0
  V  V22  1  0.33333333  0.50000000  0.06250000  1.0
  V  V23  1  0.33333333  0.83333333  0.06250000  1.0
  V  V24  1  0.66666667  0.16666667  0.06250000  1.0
  V  V25  1  0.66666667  0.50000000  0.06250000  1.0
  V  V26  1  0.66666667  0.83333333  0.06250000  1.0
  V  V27  1  0.00000000  0.16666667  0.01250000  1.0
  V  V28  1  0.00000000  0.50000000  0.01250000  1.0
  V  V29  1  0.00000000  0.83333333  0.01250000  1.0
  V  V30  1  0.33333333  0.16666667  0.01250000  1.0
  V  V31  1  0.33333333  0.50000000  0.01250000  1.0
  V  V32  1  0.33333333  0.83333333  0.01250000  1.0
  V  V33  1  0.66666667  0.16666667  0.01250000  1.0
  V  V34  1  0.66666667  0.50000000  0.01250000  1.0
  V  V35  1  0.66666667  0.83333333  0.01250000  1.0
  V  V36  1  0.16666667  0.08333333  0.06250000  1.0
  V  V37  1  0.16666667  0.41666667  0.06250000  1.0
  V  V38  1  0.16666667  0.75000000  0.06250000  1.0
  V  V39  1  0.50000000  0.08333333  0.06250000  1.0
  V  V40  1  0.50000000  0.41666667  0.06250000  1.0
  V  V41  1  0.50000000  0.75000000  0.06250000  1.0
  V  V42  1  0.83333333  0.08333333  0.06250000  1.0
  V  V43  1  0.83333333  0.41666667  0.06250000  1.0
  V  V44  1  0.83333333  0.75000000  0.06250000  1.0
  V  V45  1  0.16666667  0.25000000  0.01250000  1.0
  V  V46  1  0.16666667  0.58333333  0.01250000  1.0
  V  V47  1  0.16666667  0.91666667  0.01250000  1.0
  V  V48  1  0.50000000  0.25000000  0.01250000  1.0
  V  V49  1  0.50000000  0.58333333  0.01250000  1.0
  V  V50  1  0.50000000  0.91666667  0.01250000  1.0
  V  V51  1  0.83333333  0.25000000  0.01250000  1.0
  V  V52  1  0.83333333  0.58333333  0.01250000  1.0
  V  V53  1  0.83333333  0.91666667  0.01250000  1.0
  Ni  Ni54  1  0.16666667  0.16666667  0.03750000  1.0
  Ni  Ni55  1  0.16666667  0.50000000  0.03750000  1.0
  Ni  Ni56  1  0.16666667  0.83333333  0.03750000  1.0
  Ni  Ni57  1  0.50000000  0.16666667  0.03750000  1.0
  Ni  Ni58  1  0.50000000  0.50000000  0.03750000  1.0
  Ni  Ni59  1  0.50000000  0.83333333  0.03750000  1.0
  Ni  Ni60  1  0.83333333  0.16666667  0.03750000  1.0
  Ni  Ni61  1  0.83333333  0.50000000  0.03750000  1.0
  Ni  Ni62  1  0.83333333  0.83333333  0.03750000  1.0
  Ni  Ni63  1  0.00000000  0.00000000  0.08750000  1.0
  Ni  Ni64  1  0.00000000  0.33333333  0.08750000  1.0
  Ni  Ni65  1  0.00000000  0.66666667  0.08750000  1.0
  Ni  Ni66  1  0.33333333  0.00000000  0.08750000  1.0
  Ni  Ni67  1  0.33333333  0.33333333  0.08750000  1.0
  Ni  Ni68  1  0.33333333  0.66666667  0.08750000  1.0
  Ni  Ni69  1  0.66666667  0.00000000  0.08750000  1.0
  Ni  Ni70  1  0.66666667  0.33333333  0.08750000  1.0
  Ni  Ni71  1  0.66666667  0.66666667  0.08750000  1.0
  V  V72  1  0.08333333  0.00000000  0.16250000  1.0
  V  V73  1  0.08333333  0.33333333  0.16250000  1.0
  V  V74  1  0.08333333  0.66666667  0.16250000  1.0
  V  V75  1  0.41666667  0.00000000  0.16250000  1.0
  V  V76  1  0.41666667  0.33333333  0.16250000  1.0
  V  V77  1  0.41666667  0.66666667  0.16250000  1.0
  V  V78  1  0.75000000  0.00000000  0.16250000  1.0
  V  V79  1  0.75000000  0.33333333  0.16250000  1.0
  V  V80  1  0.75000000  0.66666667  0.16250000  1.0
  V  V81  1  0.25000000  0.00000000  0.11250000  1.0
  V  V82  1  0.25000000  0.33333333  0.11250000  1.0
  V  V83  1  0.25000000  0.66666667  0.11250000  1.0
  V  V84  1  0.58333333  0.00000000  0.11250000  1.0
  V  V85  1  0.58333333  0.33333333  0.11250000  1.0
  V  V86  1  0.58333333  0.66666667  0.11250000  1.0
  V  V87  1  0.91666667  0.00000000  0.11250000  1.0
  V  V88  1  0.91666667  0.33333333  0.11250000  1.0
  V  V89  1  0.91666667  0.66666667  0.11250000  1.0
  V  V90  1  0.00000000  0.16666667  0.16250000  1.0
  V  V91  1  0.00000000  0.50000000  0.16250000  1.0
  V  V92  1  0.00000000  0.83333333  0.16250000  1.0
  V  V93  1  0.33333333  0.16666667  0.16250000  1.0
  V  V94  1  0.33333333  0.50000000  0.16250000  1.0
  V  V95  1  0.33333333  0.83333333  0.16250000  1.0
  V  V96  1  0.66666667  0.16666667  0.16250000  1.0
  V  V97  1  0.66666667  0.50000000  0.16250000  1.0
  V  V98  1  0.66666667  0.83333333  0.16250000  1.0
  V  V99  1  0.00000000  0.16666667  0.11250000  1.0
  V  V100  1  0.00000000  0.50000000  0.11250000  1.0
  V  V101  1  0.00000000  0.83333333  0.11250000  1.0
  V  V102  1  0.33333333  0.16666667  0.11250000  1.0
  V  V103  1  0.33333333  0.50000000  0.11250000  1.0
  V  V104  1  0.33333333  0.83333333  0.11250000  1.0
  V  V105  1  0.66666667  0.16666667  0.11250000  1.0
  V  V106  1  0.66666667  0.50000000  0.11250000  1.0
  V  V107  1  0.66666667  0.83333333  0.11250000  1.0
  V  V108  1  0.16666667  0.08333333  0.16250000  1.0
  V  V109  1  0.16666667  0.41666667  0.16250000  1.0
  V  V110  1  0.16666667  0.75000000  0.16250000  1.0
  V  V111  1  0.50000000  0.08333333  0.16250000  1.0
  V  V112  1  0.50000000  0.41666667  0.16250000  1.0
  V  V113  1  0.50000000  0.75000000  0.16250000  1.0
  V  V114  1  0.83333333  0.08333333  0.16250000  1.0
  V  V115  1  0.83333333  0.41666667  0.16250000  1.0
  V  V116  1  0.83333333  0.75000000  0.16250000  1.0
  V  V117  1  0.16666667  0.25000000  0.11250000  1.0
  V  V118  1  0.16666667  0.58333333  0.11250000  1.0
  V  V119  1  0.16666667  0.91666667  0.11250000  1.0
  V  V120  1  0.50000000  0.25000000  0.11250000  1.0
  V  V121  1  0.50000000  0.58333333  0.11250000  1.0
  V  V122  1  0.50000000  0.91666667  0.11250000  1.0
  V  V123  1  0.83333333  0.25000000  0.11250000  1.0
  V  V124  1  0.83333333  0.58333333  0.11250000  1.0
  V  V125  1  0.83333333  0.91666667  0.11250000  1.0
  Ni  Ni126  1  0.16666667  0.16666667  0.13750000  1.0
  Ni  Ni127  1  0.16666667  0.50000000  0.13750000  1.0
  Ni  Ni128  1  0.16666667  0.83333333  0.13750000  1.0
  Ni  Ni129  1  0.50000000  0.16666667  0.13750000  1.0
  Ni  Ni130  1  0.50000000  0.50000000  0.13750000  1.0
  Ni  Ni131  1  0.50000000  0.83333333  0.13750000  1.0
  Ni  Ni132  1  0.83333333  0.16666667  0.13750000  1.0
  Ni  Ni133  1  0.83333333  0.50000000  0.13750000  1.0
  Ni  Ni134  1  0.83333333  0.83333333  0.13750000  1.0
  Ni  Ni135  1  0.00000000  0.00000000  0.18750000  1.0
  Ni  Ni136  1  0.00000000  0.33333333  0.18750000  1.0
  Ni  Ni137  1  0.00000000  0.66666667  0.18750000  1.0
  Ni  Ni138  1  0.33333333  0.00000000  0.18750000  1.0
  Ni  Ni139  1  0.33333333  0.33333333  0.18750000  1.0
  Ni  Ni140  1  0.33333333  0.66666667  0.18750000  1.0
  Ni  Ni141  1  0.66666667  0.00000000  0.18750000  1.0
  Ni  Ni142  1  0.66666667  0.33333333  0.18750000  1.0
  Ni  Ni143  1  0.66666667  0.66666667  0.18750000  1.0
  V  V144  1  0.08333333  0.00000000  0.26250000  1.0
  V  V145  1  0.08333333  0.33333333  0.26250000  1.0
  V  V146  1  0.08333333  0.66666667  0.26250000  1.0
  V  V147  1  0.41666667  0.00000000  0.26250000  1.0
  V  V148  1  0.41666667  0.33333333  0.26250000  1.0
  V  V149  1  0.41666667  0.66666667  0.26250000  1.0
  V  V150  1  0.75000000  0.00000000  0.26250000  1.0
  V  V151  1  0.75000000  0.33333333  0.26250000  1.0
  V  V152  1  0.75000000  0.66666667  0.26250000  1.0
  V  V153  1  0.25000000  0.00000000  0.21250000  1.0
  V  V154  1  0.25000000  0.33333333  0.21250000  1.0
  V  V155  1  0.25000000  0.66666667  0.21250000  1.0
  V  V156  1  0.58333333  0.00000000  0.21250000  1.0
  V  V157  1  0.58333333  0.33333333  0.21250000  1.0
  V  V158  1  0.58333333  0.66666667  0.21250000  1.0
  V  V159  1  0.91666667  0.00000000  0.21250000  1.0
  V  V160  1  0.91666667  0.33333333  0.21250000  1.0
  V  V161  1  0.91666667  0.66666667  0.21250000  1.0
  V  V162  1  0.00000000  0.16666667  0.26250000  1.0
  V  V163  1  0.00000000  0.50000000  0.26250000  1.0
  V  V164  1  0.00000000  0.83333333  0.26250000  1.0
  V  V165  1  0.33333333  0.16666667  0.26250000  1.0
  V  V166  1  0.33333333  0.50000000  0.26250000  1.0
  V  V167  1  0.33333333  0.83333333  0.26250000  1.0
  V  V168  1  0.66666667  0.16666667  0.26250000  1.0
  V  V169  1  0.66666667  0.50000000  0.26250000  1.0
  V  V170  1  0.66666667  0.83333333  0.26250000  1.0
  V  V171  1  0.00000000  0.16666667  0.21250000  1.0
  V  V172  1  0.00000000  0.50000000  0.21250000  1.0
  V  V173  1  0.00000000  0.83333333  0.21250000  1.0
  V  V174  1  0.33333333  0.16666667  0.21250000  1.0
  V  V175  1  0.33333333  0.50000000  0.21250000  1.0
  V  V176  1  0.33333333  0.83333333  0.21250000  1.0
  V  V177  1  0.66666667  0.16666667  0.21250000  1.0
  V  V178  1  0.66666667  0.50000000  0.21250000  1.0
  V  V179  1  0.66666667  0.83333333  0.21250000  1.0
  V  V180  1  0.16666667  0.08333333  0.26250000  1.0
  V  V181  1  0.16666667  0.41666667  0.26250000  1.0
  V  V182  1  0.16666667  0.75000000  0.26250000  1.0
  V  V183  1  0.50000000  0.08333333  0.26250000  1.0
  V  V184  1  0.50000000  0.41666667  0.26250000  1.0
  V  V185  1  0.50000000  0.75000000  0.26250000  1.0
  V  V186  1  0.83333333  0.08333333  0.26250000  1.0
  V  V187  1  0.83333333  0.41666667  0.26250000  1.0
  V  V188  1  0.83333333  0.75000000  0.26250000  1.0
  V  V189  1  0.16666667  0.25000000  0.21250000  1.0
  V  V190  1  0.16666667  0.58333333  0.21250000  1.0
  V  V191  1  0.16666667  0.91666667  0.21250000  1.0
  V  V192  1  0.50000000  0.25000000  0.21250000  1.0
  V  V193  1  0.50000000  0.58333333  0.21250000  1.0
  V  V194  1  0.50000000  0.91666667  0.21250000  1.0
  V  V195  1  0.83333333  0.25000000  0.21250000  1.0
  V  V196  1  0.83333333  0.58333333  0.21250000  1.0
  V  V197  1  0.83333333  0.91666667  0.21250000  1.0
  Ni  Ni198  1  0.16666667  0.16666667  0.23750000  1.0
  Ni  Ni199  1  0.16666667  0.50000000  0.23750000  1.0
  Ni  Ni200  1  0.16666667  0.83333333  0.23750000  1.0
  Ni  Ni201  1  0.50000000  0.16666667  0.23750000  1.0
  Ni  Ni202  1  0.50000000  0.50000000  0.23750000  1.0
  Ni  Ni203  1  0.50000000  0.83333333  0.23750000  1.0
  Ni  Ni204  1  0.83333333  0.16666667  0.23750000  1.0
  Ni  Ni205  1  0.83333333  0.50000000  0.23750000  1.0
  Ni  Ni206  1  0.83333333  0.83333333  0.23750000  1.0
  Ni  Ni207  1  0.00000000  0.00000000  0.28750000  1.0
  Ni  Ni208  1  0.00000000  0.33333333  0.28750000  1.0
  Ni  Ni209  1  0.00000000  0.66666667  0.28750000  1.0
  Ni  Ni210  1  0.33333333  0.00000000  0.28750000  1.0
  Ni  Ni211  1  0.33333333  0.33333333  0.28750000  1.0
  Ni  Ni212  1  0.33333333  0.66666667  0.28750000  1.0
  Ni  Ni213  1  0.66666667  0.00000000  0.28750000  1.0
  Ni  Ni214  1  0.66666667  0.33333333  0.28750000  1.0
  Ni  Ni215  1  0.66666667  0.66666667  0.28750000  1.0
  V  V216  1  0.08333333  0.00000000  0.36250000  1.0
  V  V217  1  0.08333333  0.33333333  0.36250000  1.0
  V  V218  1  0.08333333  0.66666667  0.36250000  1.0
  V  V219  1  0.41666667  0.00000000  0.36250000  1.0
  V  V220  1  0.41666667  0.33333333  0.36250000  1.0
  V  V221  1  0.41666667  0.66666667  0.36250000  1.0
  V  V222  1  0.75000000  0.00000000  0.36250000  1.0
  V  V223  1  0.75000000  0.33333333  0.36250000  1.0
  V  V224  1  0.75000000  0.66666667  0.36250000  1.0
  V  V225  1  0.25000000  0.00000000  0.31250000  1.0
  V  V226  1  0.25000000  0.33333333  0.31250000  1.0
  V  V227  1  0.25000000  0.66666667  0.31250000  1.0
  V  V228  1  0.58333333  0.00000000  0.31250000  1.0
  V  V229  1  0.58333333  0.33333333  0.31250000  1.0
  V  V230  1  0.58333333  0.66666667  0.31250000  1.0
  V  V231  1  0.91666667  0.00000000  0.31250000  1.0
  V  V232  1  0.91666667  0.33333333  0.31250000  1.0
  V  V233  1  0.91666667  0.66666667  0.31250000  1.0
  V  V234  1  0.00000000  0.16666667  0.36250000  1.0
  V  V235  1  0.00000000  0.50000000  0.36250000  1.0
  V  V236  1  0.00000000  0.83333333  0.36250000  1.0
  V  V237  1  0.33333333  0.16666667  0.36250000  1.0
  V  V238  1  0.33333333  0.50000000  0.36250000  1.0
  V  V239  1  0.33333333  0.83333333  0.36250000  1.0
  V  V240  1  0.66666667  0.16666667  0.36250000  1.0
  V  V241  1  0.66666667  0.50000000  0.36250000  1.0
  V  V242  1  0.66666667  0.83333333  0.36250000  1.0
  V  V243  1  0.00000000  0.16666667  0.31250000  1.0
  V  V244  1  0.00000000  0.50000000  0.31250000  1.0
  V  V245  1  0.00000000  0.83333333  0.31250000  1.0
  V  V246  1  0.33333333  0.16666667  0.31250000  1.0
  V  V247  1  0.33333333  0.50000000  0.31250000  1.0
  V  V248  1  0.33333333  0.83333333  0.31250000  1.0
  V  V249  1  0.66666667  0.16666667  0.31250000  1.0
  V  V250  1  0.66666667  0.50000000  0.31250000  1.0
  V  V251  1  0.66666667  0.83333333  0.31250000  1.0
  V  V252  1  0.16666667  0.08333333  0.36250000  1.0
  V  V253  1  0.16666667  0.41666667  0.36250000  1.0
  V  V254  1  0.16666667  0.75000000  0.36250000  1.0
  V  V255  1  0.50000000  0.08333333  0.36250000  1.0
  V  V256  1  0.50000000  0.41666667  0.36250000  1.0
  V  V257  1  0.50000000  0.75000000  0.36250000  1.0
  V  V258  1  0.83333333  0.08333333  0.36250000  1.0
  V  V259  1  0.83333333  0.41666667  0.36250000  1.0
  V  V260  1  0.83333333  0.75000000  0.36250000  1.0
  V  V261  1  0.16666667  0.25000000  0.31250000  1.0
  V  V262  1  0.16666667  0.58333333  0.31250000  1.0
  V  V263  1  0.16666667  0.91666667  0.31250000  1.0
  V  V264  1  0.50000000  0.25000000  0.31250000  1.0
  V  V265  1  0.50000000  0.58333333  0.31250000  1.0
  V  V266  1  0.50000000  0.91666667  0.31250000  1.0
  V  V267  1  0.83333333  0.25000000  0.31250000  1.0
  V  V268  1  0.83333333  0.58333333  0.31250000  1.0
  V  V269  1  0.83333333  0.91666667  0.31250000  1.0
  Ni  Ni270  1  0.16666667  0.16666667  0.33750000  1.0
  Ni  Ni271  1  0.16666667  0.50000000  0.33750000  1.0
  Ni  Ni272  1  0.16666667  0.83333333  0.33750000  1.0
  Ni  Ni273  1  0.50000000  0.16666667  0.33750000  1.0
  Ni  Ni274  1  0.50000000  0.50000000  0.33750000  1.0
  Ni  Ni275  1  0.50000000  0.83333333  0.33750000  1.0
  Ni  Ni276  1  0.83333333  0.16666667  0.33750000  1.0
  Ni  Ni277  1  0.83333333  0.50000000  0.33750000  1.0
  Ni  Ni278  1  0.83333333  0.83333333  0.33750000  1.0
  Ni  Ni279  1  0.00000000  0.00000000  0.38750000  1.0
  Ni  Ni280  1  0.00000000  0.33333333  0.38750000  1.0
  Ni  Ni281  1  0.00000000  0.66666667  0.38750000  1.0
  Ni  Ni282  1  0.33333333  0.00000000  0.38750000  1.0
  Ni  Ni283  1  0.33333333  0.33333333  0.38750000  1.0
  Ni  Ni284  1  0.33333333  0.66666667  0.38750000  1.0
  Ni  Ni285  1  0.66666667  0.00000000  0.38750000  1.0
  Ni  Ni286  1  0.66666667  0.33333333  0.38750000  1.0
  Ni  Ni287  1  0.66666667  0.66666667  0.38750000  1.0
