# generated using pymatgen
data_VNi2
_symmetry_space_group_name_H-M   'P 1'
_cell_length_a   7.56453000
_cell_length_b   20.07275639
_cell_length_c   28.95721087
_cell_angle_alpha   92.77986741
_cell_angle_beta   90.00000001
_cell_angle_gamma   100.86104566
_symmetry_Int_Tables_number   1
_chemical_formula_structural   VNi2
_chemical_formula_sum   'V54 Ni108'
_cell_volume   4312.86106078
_cell_formula_units_Z   54
loop_
 _symmetry_equiv_pos_site_id
 _symmetry_equiv_pos_as_xyz
  1  'x, y, z'
loop_
 _atom_site_type_symbol
 _atom_site_label
 _atom_site_symmetry_multiplicity
 _atom_site_fract_x
 _atom_site_fract_y
 _atom_site_fract_z
 _atom_site_occupancy
  Ni  Ni0  1  0.07551333  0.06708167  0.03519000  1.0
  Ni  Ni1  1  0.07551333  0.40041500  0.03519000  1.0
  Ni  Ni2  1  0.07551333  0.73374833  0.03519000  1.0
  Ni  Ni3  1  0.40884667  0.06708167  0.03519000  1.0
  Ni  Ni4  1  0.40884667  0.40041500  0.03519000  1.0
  Ni  Ni5  1  0.40884667  0.73374833  0.03519000  1.0
  Ni  Ni6  1  0.74218000  0.06708167  0.03519000  1.0
  Ni  Ni7  1  0.74218000  0.40041500  0.03519000  1.0
  Ni  Ni8  1  0.74218000  0.73374833  0.03519000  1.0
  Ni  Ni9  1  0.00408476  0.25755786  0.10661857  1.0
  Ni  Ni10  1  0.00408476  0.59089119  0.10661857  1.0
  Ni  Ni11  1  0.00408476  0.92422452  0.10661857  1.0
  Ni  Ni12  1  0.33741810  0.25755786  0.10661857  1.0
  Ni  Ni13  1  0.33741810  0.59089119  0.10661857  1.0
  Ni  Ni14  1  0.33741810  0.92422452  0.10661857  1.0
  Ni  Ni15  1  0.67075143  0.25755786  0.10661857  1.0
  Ni  Ni16  1  0.67075143  0.59089119  0.10661857  1.0
  Ni  Ni17  1  0.67075143  0.92422452  0.10661857  1.0
  Ni  Ni18  1  0.11548714  0.14702929  0.10714286  1.0
  Ni  Ni19  1  0.11548714  0.48036262  0.10714286  1.0
  Ni  Ni20  1  0.11548714  0.81369595  0.10714286  1.0
  Ni  Ni21  1  0.44882048  0.14702929  0.10714286  1.0
  Ni  Ni22  1  0.44882048  0.48036262  0.10714286  1.0
  Ni  Ni23  1  0.44882048  0.81369595  0.10714286  1.0
  Ni  Ni24  1  0.78215381  0.14702929  0.10714286  1.0
  Ni  Ni25  1  0.78215381  0.48036262  0.10714286  1.0
  Ni  Ni26  1  0.78215381  0.81369595  0.10714286  1.0
  Ni  Ni27  1  0.18691571  0.28988643  0.03571429  1.0
  Ni  Ni28  1  0.18691571  0.62321976  0.03571429  1.0
  Ni  Ni29  1  0.18691571  0.95655310  0.03571429  1.0
  Ni  Ni30  1  0.52024905  0.28988643  0.03571429  1.0
  Ni  Ni31  1  0.52024905  0.62321976  0.03571429  1.0
  Ni  Ni32  1  0.52024905  0.95655310  0.03571429  1.0
  Ni  Ni33  1  0.85358238  0.28988643  0.03571429  1.0
  Ni  Ni34  1  0.85358238  0.62321976  0.03571429  1.0
  Ni  Ni35  1  0.85358238  0.95655310  0.03571429  1.0
  Ni  Ni36  1  0.26598952  0.11470071  0.17804714  1.0
  Ni  Ni37  1  0.26598952  0.44803405  0.17804714  1.0
  Ni  Ni38  1  0.26598952  0.78136738  0.17804714  1.0
  Ni  Ni39  1  0.59932286  0.11470071  0.17804714  1.0
  Ni  Ni40  1  0.59932286  0.44803405  0.17804714  1.0
  Ni  Ni41  1  0.59932286  0.78136738  0.17804714  1.0
  Ni  Ni42  1  0.93265619  0.11470071  0.17804714  1.0
  Ni  Ni43  1  0.93265619  0.44803405  0.17804714  1.0
  Ni  Ni44  1  0.93265619  0.78136738  0.17804714  1.0
  Ni  Ni45  1  0.19456095  0.30517690  0.24947571  1.0
  Ni  Ni46  1  0.19456095  0.63851024  0.24947571  1.0
  Ni  Ni47  1  0.19456095  0.97184357  0.24947571  1.0
  Ni  Ni48  1  0.52789429  0.30517690  0.24947571  1.0
  Ni  Ni49  1  0.52789429  0.63851024  0.24947571  1.0
  Ni  Ni50  1  0.52789429  0.97184357  0.24947571  1.0
  Ni  Ni51  1  0.86122762  0.30517690  0.24947571  1.0
  Ni  Ni52  1  0.86122762  0.63851024  0.24947571  1.0
  Ni  Ni53  1  0.86122762  0.97184357  0.24947571  1.0
  Ni  Ni54  1  0.30596333  0.19464833  0.25000000  1.0
  Ni  Ni55  1  0.30596333  0.52798167  0.25000000  1.0
  Ni  Ni56  1  0.30596333  0.86131500  0.25000000  1.0
  Ni  Ni57  1  0.63929667  0.19464833  0.25000000  1.0
  Ni  Ni58  1  0.63929667  0.52798167  0.25000000  1.0
  Ni  Ni59  1  0.63929667  0.86131500  0.25000000  1.0
  Ni  Ni60  1  0.97263000  0.19464833  0.25000000  1.0
  Ni  Ni61  1  0.97263000  0.52798167  0.25000000  1.0
  Ni  Ni62  1  0.97263000  0.86131500  0.25000000  1.0
  Ni  Ni63  1  0.04405857  0.00417214  0.17857143  1.0
  Ni  Ni64  1  0.04405857  0.33750548  0.17857143  1.0
  Ni  Ni65  1  0.04405857  0.67083881  0.17857143  1.0
  Ni  Ni66  1  0.37739190  0.00417214  0.17857143  1.0
  Ni  Ni67  1  0.37739190  0.33750548  0.17857143  1.0
  Ni  Ni68  1  0.37739190  0.67083881  0.17857143  1.0
  Ni  Ni69  1  0.71072524  0.00417214  0.17857143  1.0
  Ni  Ni70  1  0.71072524  0.33750548  0.17857143  1.0
  Ni  Ni71  1  0.71072524  0.67083881  0.17857143  1.0
  Ni  Ni72  1  0.12313238  0.16231976  0.32090429  1.0
  Ni  Ni73  1  0.12313238  0.49565310  0.32090429  1.0
  Ni  Ni74  1  0.12313238  0.82898643  0.32090429  1.0
  Ni  Ni75  1  0.45646571  0.16231976  0.32090429  1.0
  Ni  Ni76  1  0.45646571  0.49565310  0.32090429  1.0
  Ni  Ni77  1  0.45646571  0.82898643  0.32090429  1.0
  Ni  Ni78  1  0.78979905  0.16231976  0.32090429  1.0
  Ni  Ni79  1  0.78979905  0.49565310  0.32090429  1.0
  Ni  Ni80  1  0.78979905  0.82898643  0.32090429  1.0
  Ni  Ni81  1  0.05170381  0.01946262  0.39233286  1.0
  Ni  Ni82  1  0.05170381  0.35279595  0.39233286  1.0
  Ni  Ni83  1  0.05170381  0.68612929  0.39233286  1.0
  Ni  Ni84  1  0.38503714  0.01946262  0.39233286  1.0
  Ni  Ni85  1  0.38503714  0.35279595  0.39233286  1.0
  Ni  Ni86  1  0.38503714  0.68612929  0.39233286  1.0
  Ni  Ni87  1  0.71837048  0.01946262  0.39233286  1.0
  Ni  Ni88  1  0.71837048  0.35279595  0.39233286  1.0
  Ni  Ni89  1  0.71837048  0.68612929  0.39233286  1.0
  Ni  Ni90  1  0.16310619  0.24226738  0.39285714  1.0
  Ni  Ni91  1  0.16310619  0.57560071  0.39285714  1.0
  Ni  Ni92  1  0.16310619  0.90893405  0.39285714  1.0
  Ni  Ni93  1  0.49643952  0.24226738  0.39285714  1.0
  Ni  Ni94  1  0.49643952  0.57560071  0.39285714  1.0
  Ni  Ni95  1  0.49643952  0.90893405  0.39285714  1.0
  Ni  Ni96  1  0.82977286  0.24226738  0.39285714  1.0
  Ni  Ni97  1  0.82977286  0.57560071  0.39285714  1.0
  Ni  Ni98  1  0.82977286  0.90893405  0.39285714  1.0
  Ni  Ni99  1  0.23453476  0.05179119  0.32142857  1.0
  Ni  Ni100  1  0.23453476  0.38512452  0.32142857  1.0
  Ni  Ni101  1  0.23453476  0.71845786  0.32142857  1.0
  Ni  Ni102  1  0.56786810  0.05179119  0.32142857  1.0
  Ni  Ni103  1  0.56786810  0.38512452  0.32142857  1.0
  Ni  Ni104  1  0.56786810  0.71845786  0.32142857  1.0
  Ni  Ni105  1  0.90120143  0.05179119  0.32142857  1.0
  Ni  Ni106  1  0.90120143  0.38512452  0.32142857  1.0
  Ni  Ni107  1  0.90120143  0.71845786  0.32142857  1.0
  V  V108  1  0.29788119  0.17848405  0.03545214  1.0
  V  V109  1  0.29788119  0.51181738  0.03545214  1.0
  V  V110  1  0.29788119  0.84515071  0.03545214  1.0
  V  V111  1  0.63121452  0.17848405  0.03545214  1.0
  V  V112  1  0.63121452  0.51181738  0.03545214  1.0
  V  V113  1  0.63121452  0.84515071  0.03545214  1.0
  V  V114  1  0.96454786  0.17848405  0.03545214  1.0
  V  V115  1  0.96454786  0.51181738  0.03545214  1.0
  V  V116  1  0.96454786  0.84515071  0.03545214  1.0
  V  V117  1  0.22645262  0.03562690  0.10688071  1.0
  V  V118  1  0.22645262  0.36896024  0.10688071  1.0
  V  V119  1  0.22645262  0.70229357  0.10688071  1.0
  V  V120  1  0.55978595  0.03562690  0.10688071  1.0
  V  V121  1  0.55978595  0.36896024  0.10688071  1.0
  V  V122  1  0.55978595  0.70229357  0.10688071  1.0
  V  V123  1  0.89311929  0.03562690  0.10688071  1.0
  V  V124  1  0.89311929  0.36896024  0.10688071  1.0
  V  V125  1  0.89311929  0.70229357  0.10688071  1.0
  V  V126  1  0.15502405  0.22610310  0.17830929  1.0
  V  V127  1  0.15502405  0.55943643  0.17830929  1.0
  V  V128  1  0.15502405  0.89276976  0.17830929  1.0
  V  V129  1  0.48835738  0.22610310  0.17830929  1.0
  V  V130  1  0.48835738  0.55943643  0.17830929  1.0
  V  V131  1  0.48835738  0.89276976  0.17830929  1.0
  V  V132  1  0.82169071  0.22610310  0.17830929  1.0
  V  V133  1  0.82169071  0.55943643  0.17830929  1.0
  V  V134  1  0.82169071  0.89276976  0.17830929  1.0
  V  V135  1  0.08359548  0.08324595  0.24973786  1.0
  V  V136  1  0.08359548  0.41657929  0.24973786  1.0
  V  V137  1  0.08359548  0.74991262  0.24973786  1.0
  V  V138  1  0.41692881  0.08324595  0.24973786  1.0
  V  V139  1  0.41692881  0.41657929  0.24973786  1.0
  V  V140  1  0.41692881  0.74991262  0.24973786  1.0
  V  V141  1  0.75026214  0.08324595  0.24973786  1.0
  V  V142  1  0.75026214  0.41657929  0.24973786  1.0
  V  V143  1  0.75026214  0.74991262  0.24973786  1.0
  V  V144  1  0.01216690  0.27372214  0.32116643  1.0
  V  V145  1  0.01216690  0.60705548  0.32116643  1.0
  V  V146  1  0.01216690  0.94038881  0.32116643  1.0
  V  V147  1  0.34550024  0.27372214  0.32116643  1.0
  V  V148  1  0.34550024  0.60705548  0.32116643  1.0
  V  V149  1  0.34550024  0.94038881  0.32116643  1.0
  V  V150  1  0.67883357  0.27372214  0.32116643  1.0
  V  V151  1  0.67883357  0.60705548  0.32116643  1.0
  V  V152  1  0.67883357  0.94038881  0.32116643  1.0
  V  V153  1  0.27407167  0.13086500  0.39259500  1.0
  V  V154  1  0.27407167  0.46419833  0.39259500  1.0
  V  V155  1  0.27407167  0.79753167  0.39259500  1.0
  V  V156  1  0.60740500  0.13086500  0.39259500  1.0
  V  V157  1  0.60740500  0.46419833  0.39259500  1.0
  V  V158  1  0.60740500  0.79753167  0.39259500  1.0
  V  V159  1  0.94073833  0.13086500  0.39259500  1.0
  V  V160  1  0.94073833  0.46419833  0.39259500  1.0
  V  V161  1  0.94073833  0.79753167  0.39259500  1.0
