# generated using pymatgen
data_VNi2
_symmetry_space_group_name_H-M   'P 1'
_cell_length_a   13.12557385
_cell_length_b   36.40148964
_cell_length_c   87.63520340
_cell_angle_alpha   32.55183304
_cell_angle_beta   99.64852115
_cell_angle_gamma   72.53921310
_symmetry_Int_Tables_number   1
_chemical_formula_structural   VNi2
_chemical_formula_sum   'V144 Ni288'
_cell_volume   12322.46017366
_cell_formula_units_Z   144
loop_
 _symmetry_equiv_pos_site_id
 _symmetry_equiv_pos_as_xyz
  1  'x, y, z'
loop_
 _atom_site_type_symbol
 _atom_site_label
 _atom_site_symmetry_multiplicity
 _atom_site_fract_x
 _atom_site_fract_y
 _atom_site_fract_z
 _atom_site_occupancy
  V  V0  1  0.00000000  0.16666667  0.02080275  1.0
  V  V1  1  0.00000000  0.50000000  0.02080275  1.0
  V  V2  1  0.00000000  0.83333333  0.02080275  1.0
  V  V3  1  0.33333333  0.16666667  0.02080275  1.0
  V  V4  1  0.33333333  0.50000000  0.02080275  1.0
  V  V5  1  0.33333333  0.83333333  0.02080275  1.0
  V  V6  1  0.66666667  0.16666667  0.02080275  1.0
  V  V7  1  0.66666667  0.50000000  0.02080275  1.0
  V  V8  1  0.66666667  0.83333333  0.02080275  1.0
  V  V9  1  0.00000000  0.00000000  0.04580275  1.0
  V  V10  1  0.00000000  0.33333333  0.04580275  1.0
  V  V11  1  0.00000000  0.66666667  0.04580275  1.0
  V  V12  1  0.33333333  0.00000000  0.04580275  1.0
  V  V13  1  0.33333333  0.33333333  0.04580275  1.0
  V  V14  1  0.33333333  0.66666667  0.04580275  1.0
  V  V15  1  0.66666667  0.00000000  0.04580275  1.0
  V  V16  1  0.66666667  0.33333333  0.04580275  1.0
  V  V17  1  0.66666667  0.66666667  0.04580275  1.0
  Ni  Ni18  1  0.22263000  0.27737000  0.00419725  1.0
  Ni  Ni19  1  0.22263000  0.61070333  0.00419725  1.0
  Ni  Ni20  1  0.22263000  0.94403667  0.00419725  1.0
  Ni  Ni21  1  0.55596333  0.27737000  0.00419725  1.0
  Ni  Ni22  1  0.55596333  0.61070333  0.00419725  1.0
  Ni  Ni23  1  0.55596333  0.94403667  0.00419725  1.0
  Ni  Ni24  1  0.88929667  0.27737000  0.00419725  1.0
  Ni  Ni25  1  0.88929667  0.61070333  0.00419725  1.0
  Ni  Ni26  1  0.88929667  0.94403667  0.00419725  1.0
  Ni  Ni27  1  0.22263000  0.11070333  0.02919725  1.0
  Ni  Ni28  1  0.22263000  0.44403667  0.02919725  1.0
  Ni  Ni29  1  0.22263000  0.77737000  0.02919725  1.0
  Ni  Ni30  1  0.55596333  0.11070333  0.02919725  1.0
  Ni  Ni31  1  0.55596333  0.44403667  0.02919725  1.0
  Ni  Ni32  1  0.55596333  0.77737000  0.02919725  1.0
  Ni  Ni33  1  0.88929667  0.11070333  0.02919725  1.0
  Ni  Ni34  1  0.88929667  0.44403667  0.02919725  1.0
  Ni  Ni35  1  0.88929667  0.77737000  0.02919725  1.0
  Ni  Ni36  1  0.11070333  0.05596333  0.03740825  1.0
  Ni  Ni37  1  0.11070333  0.38929667  0.03740825  1.0
  Ni  Ni38  1  0.11070333  0.72263000  0.03740825  1.0
  Ni  Ni39  1  0.44403667  0.05596333  0.03740825  1.0
  Ni  Ni40  1  0.44403667  0.38929667  0.03740825  1.0
  Ni  Ni41  1  0.44403667  0.72263000  0.03740825  1.0
  Ni  Ni42  1  0.77737000  0.05596333  0.03740825  1.0
  Ni  Ni43  1  0.77737000  0.38929667  0.03740825  1.0
  Ni  Ni44  1  0.77737000  0.72263000  0.03740825  1.0
  Ni  Ni45  1  0.11070333  0.22263000  0.01240825  1.0
  Ni  Ni46  1  0.11070333  0.55596333  0.01240825  1.0
  Ni  Ni47  1  0.11070333  0.88929667  0.01240825  1.0
  Ni  Ni48  1  0.44403667  0.22263000  0.01240825  1.0
  Ni  Ni49  1  0.44403667  0.55596333  0.01240825  1.0
  Ni  Ni50  1  0.44403667  0.88929667  0.01240825  1.0
  Ni  Ni51  1  0.77737000  0.22263000  0.01240825  1.0
  Ni  Ni52  1  0.77737000  0.55596333  0.01240825  1.0
  Ni  Ni53  1  0.77737000  0.88929667  0.01240825  1.0
  V  V54  1  0.00000000  0.16666667  0.07080275  1.0
  V  V55  1  0.00000000  0.50000000  0.07080275  1.0
  V  V56  1  0.00000000  0.83333333  0.07080275  1.0
  V  V57  1  0.33333333  0.16666667  0.07080275  1.0
  V  V58  1  0.33333333  0.50000000  0.07080275  1.0
  V  V59  1  0.33333333  0.83333333  0.07080275  1.0
  V  V60  1  0.66666667  0.16666667  0.07080275  1.0
  V  V61  1  0.66666667  0.50000000  0.07080275  1.0
  V  V62  1  0.66666667  0.83333333  0.07080275  1.0
  V  V63  1  0.00000000  0.00000000  0.09580275  1.0
  V  V64  1  0.00000000  0.33333333  0.09580275  1.0
  V  V65  1  0.00000000  0.66666667  0.09580275  1.0
  V  V66  1  0.33333333  0.00000000  0.09580275  1.0
  V  V67  1  0.33333333  0.33333333  0.09580275  1.0
  V  V68  1  0.33333333  0.66666667  0.09580275  1.0
  V  V69  1  0.66666667  0.00000000  0.09580275  1.0
  V  V70  1  0.66666667  0.33333333  0.09580275  1.0
  V  V71  1  0.66666667  0.66666667  0.09580275  1.0
  Ni  Ni72  1  0.22263000  0.27737000  0.05419725  1.0
  Ni  Ni73  1  0.22263000  0.61070333  0.05419725  1.0
  Ni  Ni74  1  0.22263000  0.94403667  0.05419725  1.0
  Ni  Ni75  1  0.55596333  0.27737000  0.05419725  1.0
  Ni  Ni76  1  0.55596333  0.61070333  0.05419725  1.0
  Ni  Ni77  1  0.55596333  0.94403667  0.05419725  1.0
  Ni  Ni78  1  0.88929667  0.27737000  0.05419725  1.0
  Ni  Ni79  1  0.88929667  0.61070333  0.05419725  1.0
  Ni  Ni80  1  0.88929667  0.94403667  0.05419725  1.0
  Ni  Ni81  1  0.22263000  0.11070333  0.07919725  1.0
  Ni  Ni82  1  0.22263000  0.44403667  0.07919725  1.0
  Ni  Ni83  1  0.22263000  0.77737000  0.07919725  1.0
  Ni  Ni84  1  0.55596333  0.11070333  0.07919725  1.0
  Ni  Ni85  1  0.55596333  0.44403667  0.07919725  1.0
  Ni  Ni86  1  0.55596333  0.77737000  0.07919725  1.0
  Ni  Ni87  1  0.88929667  0.11070333  0.07919725  1.0
  Ni  Ni88  1  0.88929667  0.44403667  0.07919725  1.0
  Ni  Ni89  1  0.88929667  0.77737000  0.07919725  1.0
  Ni  Ni90  1  0.11070333  0.05596333  0.08740825  1.0
  Ni  Ni91  1  0.11070333  0.38929667  0.08740825  1.0
  Ni  Ni92  1  0.11070333  0.72263000  0.08740825  1.0
  Ni  Ni93  1  0.44403667  0.05596333  0.08740825  1.0
  Ni  Ni94  1  0.44403667  0.38929667  0.08740825  1.0
  Ni  Ni95  1  0.44403667  0.72263000  0.08740825  1.0
  Ni  Ni96  1  0.77737000  0.05596333  0.08740825  1.0
  Ni  Ni97  1  0.77737000  0.38929667  0.08740825  1.0
  Ni  Ni98  1  0.77737000  0.72263000  0.08740825  1.0
  Ni  Ni99  1  0.11070333  0.22263000  0.06240825  1.0
  Ni  Ni100  1  0.11070333  0.55596333  0.06240825  1.0
  Ni  Ni101  1  0.11070333  0.88929667  0.06240825  1.0
  Ni  Ni102  1  0.44403667  0.22263000  0.06240825  1.0
  Ni  Ni103  1  0.44403667  0.55596333  0.06240825  1.0
  Ni  Ni104  1  0.44403667  0.88929667  0.06240825  1.0
  Ni  Ni105  1  0.77737000  0.22263000  0.06240825  1.0
  Ni  Ni106  1  0.77737000  0.55596333  0.06240825  1.0
  Ni  Ni107  1  0.77737000  0.88929667  0.06240825  1.0
  V  V108  1  0.00000000  0.16666667  0.12080275  1.0
  V  V109  1  0.00000000  0.50000000  0.12080275  1.0
  V  V110  1  0.00000000  0.83333333  0.12080275  1.0
  V  V111  1  0.33333333  0.16666667  0.12080275  1.0
  V  V112  1  0.33333333  0.50000000  0.12080275  1.0
  V  V113  1  0.33333333  0.83333333  0.12080275  1.0
  V  V114  1  0.66666667  0.16666667  0.12080275  1.0
  V  V115  1  0.66666667  0.50000000  0.12080275  1.0
  V  V116  1  0.66666667  0.83333333  0.12080275  1.0
  V  V117  1  0.00000000  0.00000000  0.14580275  1.0
  V  V118  1  0.00000000  0.33333333  0.14580275  1.0
  V  V119  1  0.00000000  0.66666667  0.14580275  1.0
  V  V120  1  0.33333333  0.00000000  0.14580275  1.0
  V  V121  1  0.33333333  0.33333333  0.14580275  1.0
  V  V122  1  0.33333333  0.66666667  0.14580275  1.0
  V  V123  1  0.66666667  0.00000000  0.14580275  1.0
  V  V124  1  0.66666667  0.33333333  0.14580275  1.0
  V  V125  1  0.66666667  0.66666667  0.14580275  1.0
  Ni  Ni126  1  0.22263000  0.27737000  0.10419725  1.0
  Ni  Ni127  1  0.22263000  0.61070333  0.10419725  1.0
  Ni  Ni128  1  0.22263000  0.94403667  0.10419725  1.0
  Ni  Ni129  1  0.55596333  0.27737000  0.10419725  1.0
  Ni  Ni130  1  0.55596333  0.61070333  0.10419725  1.0
  Ni  Ni131  1  0.55596333  0.94403667  0.10419725  1.0
  Ni  Ni132  1  0.88929667  0.27737000  0.10419725  1.0
  Ni  Ni133  1  0.88929667  0.61070333  0.10419725  1.0
  Ni  Ni134  1  0.88929667  0.94403667  0.10419725  1.0
  Ni  Ni135  1  0.22263000  0.11070333  0.12919725  1.0
  Ni  Ni136  1  0.22263000  0.44403667  0.12919725  1.0
  Ni  Ni137  1  0.22263000  0.77737000  0.12919725  1.0
  Ni  Ni138  1  0.55596333  0.11070333  0.12919725  1.0
  Ni  Ni139  1  0.55596333  0.44403667  0.12919725  1.0
  Ni  Ni140  1  0.55596333  0.77737000  0.12919725  1.0
  Ni  Ni141  1  0.88929667  0.11070333  0.12919725  1.0
  Ni  Ni142  1  0.88929667  0.44403667  0.12919725  1.0
  Ni  Ni143  1  0.88929667  0.77737000  0.12919725  1.0
  Ni  Ni144  1  0.11070333  0.05596333  0.13740825  1.0
  Ni  Ni145  1  0.11070333  0.38929667  0.13740825  1.0
  Ni  Ni146  1  0.11070333  0.72263000  0.13740825  1.0
  Ni  Ni147  1  0.44403667  0.05596333  0.13740825  1.0
  Ni  Ni148  1  0.44403667  0.38929667  0.13740825  1.0
  Ni  Ni149  1  0.44403667  0.72263000  0.13740825  1.0
  Ni  Ni150  1  0.77737000  0.05596333  0.13740825  1.0
  Ni  Ni151  1  0.77737000  0.38929667  0.13740825  1.0
  Ni  Ni152  1  0.77737000  0.72263000  0.13740825  1.0
  Ni  Ni153  1  0.11070333  0.22263000  0.11240825  1.0
  Ni  Ni154  1  0.11070333  0.55596333  0.11240825  1.0
  Ni  Ni155  1  0.11070333  0.88929667  0.11240825  1.0
  Ni  Ni156  1  0.44403667  0.22263000  0.11240825  1.0
  Ni  Ni157  1  0.44403667  0.55596333  0.11240825  1.0
  Ni  Ni158  1  0.44403667  0.88929667  0.11240825  1.0
  Ni  Ni159  1  0.77737000  0.22263000  0.11240825  1.0
  Ni  Ni160  1  0.77737000  0.55596333  0.11240825  1.0
  Ni  Ni161  1  0.77737000  0.88929667  0.11240825  1.0
  V  V162  1  0.00000000  0.16666667  0.17080275  1.0
  V  V163  1  0.00000000  0.50000000  0.17080275  1.0
  V  V164  1  0.00000000  0.83333333  0.17080275  1.0
  V  V165  1  0.33333333  0.16666667  0.17080275  1.0
  V  V166  1  0.33333333  0.50000000  0.17080275  1.0
  V  V167  1  0.33333333  0.83333333  0.17080275  1.0
  V  V168  1  0.66666667  0.16666667  0.17080275  1.0
  V  V169  1  0.66666667  0.50000000  0.17080275  1.0
  V  V170  1  0.66666667  0.83333333  0.17080275  1.0
  V  V171  1  0.00000000  0.00000000  0.19580275  1.0
  V  V172  1  0.00000000  0.33333333  0.19580275  1.0
  V  V173  1  0.00000000  0.66666667  0.19580275  1.0
  V  V174  1  0.33333333  0.00000000  0.19580275  1.0
  V  V175  1  0.33333333  0.33333333  0.19580275  1.0
  V  V176  1  0.33333333  0.66666667  0.19580275  1.0
  V  V177  1  0.66666667  0.00000000  0.19580275  1.0
  V  V178  1  0.66666667  0.33333333  0.19580275  1.0
  V  V179  1  0.66666667  0.66666667  0.19580275  1.0
  Ni  Ni180  1  0.22263000  0.27737000  0.15419725  1.0
  Ni  Ni181  1  0.22263000  0.61070333  0.15419725  1.0
  Ni  Ni182  1  0.22263000  0.94403667  0.15419725  1.0
  Ni  Ni183  1  0.55596333  0.27737000  0.15419725  1.0
  Ni  Ni184  1  0.55596333  0.61070333  0.15419725  1.0
  Ni  Ni185  1  0.55596333  0.94403667  0.15419725  1.0
  Ni  Ni186  1  0.88929667  0.27737000  0.15419725  1.0
  Ni  Ni187  1  0.88929667  0.61070333  0.15419725  1.0
  Ni  Ni188  1  0.88929667  0.94403667  0.15419725  1.0
  Ni  Ni189  1  0.22263000  0.11070333  0.17919725  1.0
  Ni  Ni190  1  0.22263000  0.44403667  0.17919725  1.0
  Ni  Ni191  1  0.22263000  0.77737000  0.17919725  1.0
  Ni  Ni192  1  0.55596333  0.11070333  0.17919725  1.0
  Ni  Ni193  1  0.55596333  0.44403667  0.17919725  1.0
  Ni  Ni194  1  0.55596333  0.77737000  0.17919725  1.0
  Ni  Ni195  1  0.88929667  0.11070333  0.17919725  1.0
  Ni  Ni196  1  0.88929667  0.44403667  0.17919725  1.0
  Ni  Ni197  1  0.88929667  0.77737000  0.17919725  1.0
  Ni  Ni198  1  0.11070333  0.05596333  0.18740825  1.0
  Ni  Ni199  1  0.11070333  0.38929667  0.18740825  1.0
  Ni  Ni200  1  0.11070333  0.72263000  0.18740825  1.0
  Ni  Ni201  1  0.44403667  0.05596333  0.18740825  1.0
  Ni  Ni202  1  0.44403667  0.38929667  0.18740825  1.0
  Ni  Ni203  1  0.44403667  0.72263000  0.18740825  1.0
  Ni  Ni204  1  0.77737000  0.05596333  0.18740825  1.0
  Ni  Ni205  1  0.77737000  0.38929667  0.18740825  1.0
  Ni  Ni206  1  0.77737000  0.72263000  0.18740825  1.0
  Ni  Ni207  1  0.11070333  0.22263000  0.16240825  1.0
  Ni  Ni208  1  0.11070333  0.55596333  0.16240825  1.0
  Ni  Ni209  1  0.11070333  0.88929667  0.16240825  1.0
  Ni  Ni210  1  0.44403667  0.22263000  0.16240825  1.0
  Ni  Ni211  1  0.44403667  0.55596333  0.16240825  1.0
  Ni  Ni212  1  0.44403667  0.88929667  0.16240825  1.0
  Ni  Ni213  1  0.77737000  0.22263000  0.16240825  1.0
  Ni  Ni214  1  0.77737000  0.55596333  0.16240825  1.0
  Ni  Ni215  1  0.77737000  0.88929667  0.16240825  1.0
  V  V216  1  0.00000000  0.16666667  0.22080275  1.0
  V  V217  1  0.00000000  0.50000000  0.22080275  1.0
  V  V218  1  0.00000000  0.83333333  0.22080275  1.0
  V  V219  1  0.33333333  0.16666667  0.22080275  1.0
  V  V220  1  0.33333333  0.50000000  0.22080275  1.0
  V  V221  1  0.33333333  0.83333333  0.22080275  1.0
  V  V222  1  0.66666667  0.16666667  0.22080275  1.0
  V  V223  1  0.66666667  0.50000000  0.22080275  1.0
  V  V224  1  0.66666667  0.83333333  0.22080275  1.0
  V  V225  1  0.00000000  0.00000000  0.24580275  1.0
  V  V226  1  0.00000000  0.33333333  0.24580275  1.0
  V  V227  1  0.00000000  0.66666667  0.24580275  1.0
  V  V228  1  0.33333333  0.00000000  0.24580275  1.0
  V  V229  1  0.33333333  0.33333333  0.24580275  1.0
  V  V230  1  0.33333333  0.66666667  0.24580275  1.0
  V  V231  1  0.66666667  0.00000000  0.24580275  1.0
  V  V232  1  0.66666667  0.33333333  0.24580275  1.0
  V  V233  1  0.66666667  0.66666667  0.24580275  1.0
  Ni  Ni234  1  0.22263000  0.27737000  0.20419725  1.0
  Ni  Ni235  1  0.22263000  0.61070333  0.20419725  1.0
  Ni  Ni236  1  0.22263000  0.94403667  0.20419725  1.0
  Ni  Ni237  1  0.55596333  0.27737000  0.20419725  1.0
  Ni  Ni238  1  0.55596333  0.61070333  0.20419725  1.0
  Ni  Ni239  1  0.55596333  0.94403667  0.20419725  1.0
  Ni  Ni240  1  0.88929667  0.27737000  0.20419725  1.0
  Ni  Ni241  1  0.88929667  0.61070333  0.20419725  1.0
  Ni  Ni242  1  0.88929667  0.94403667  0.20419725  1.0
  Ni  Ni243  1  0.22263000  0.11070333  0.22919725  1.0
  Ni  Ni244  1  0.22263000  0.44403667  0.22919725  1.0
  Ni  Ni245  1  0.22263000  0.77737000  0.22919725  1.0
  Ni  Ni246  1  0.55596333  0.11070333  0.22919725  1.0
  Ni  Ni247  1  0.55596333  0.44403667  0.22919725  1.0
  Ni  Ni248  1  0.55596333  0.77737000  0.22919725  1.0
  Ni  Ni249  1  0.88929667  0.11070333  0.22919725  1.0
  Ni  Ni250  1  0.88929667  0.44403667  0.22919725  1.0
  Ni  Ni251  1  0.88929667  0.77737000  0.22919725  1.0
  Ni  Ni252  1  0.11070333  0.05596333  0.23740825  1.0
  Ni  Ni253  1  0.11070333  0.38929667  0.23740825  1.0
  Ni  Ni254  1  0.11070333  0.72263000  0.23740825  1.0
  Ni  Ni255  1  0.44403667  0.05596333  0.23740825  1.0
  Ni  Ni256  1  0.44403667  0.38929667  0.23740825  1.0
  Ni  Ni257  1  0.44403667  0.72263000  0.23740825  1.0
  Ni  Ni258  1  0.77737000  0.05596333  0.23740825  1.0
  Ni  Ni259  1  0.77737000  0.38929667  0.23740825  1.0
  Ni  Ni260  1  0.77737000  0.72263000  0.23740825  1.0
  Ni  Ni261  1  0.11070333  0.22263000  0.21240825  1.0
  Ni  Ni262  1  0.11070333  0.55596333  0.21240825  1.0
  Ni  Ni263  1  0.11070333  0.88929667  0.21240825  1.0
  Ni  Ni264  1  0.44403667  0.22263000  0.21240825  1.0
  Ni  Ni265  1  0.44403667  0.55596333  0.21240825  1.0
  Ni  Ni266  1  0.44403667  0.88929667  0.21240825  1.0
  Ni  Ni267  1  0.77737000  0.22263000  0.21240825  1.0
  Ni  Ni268  1  0.77737000  0.55596333  0.21240825  1.0
  Ni  Ni269  1  0.77737000  0.88929667  0.21240825  1.0
  V  V270  1  0.00000000  0.16666667  0.27080275  1.0
  V  V271  1  0.00000000  0.50000000  0.27080275  1.0
  V  V272  1  0.00000000  0.83333333  0.27080275  1.0
  V  V273  1  0.33333333  0.16666667  0.27080275  1.0
  V  V274  1  0.33333333  0.50000000  0.27080275  1.0
  V  V275  1  0.33333333  0.83333333  0.27080275  1.0
  V  V276  1  0.66666667  0.16666667  0.27080275  1.0
  V  V277  1  0.66666667  0.50000000  0.27080275  1.0
  V  V278  1  0.66666667  0.83333333  0.27080275  1.0
  V  V279  1  0.00000000  0.00000000  0.29580275  1.0
  V  V280  1  0.00000000  0.33333333  0.29580275  1.0
  V  V281  1  0.00000000  0.66666667  0.29580275  1.0
  V  V282  1  0.33333333  0.00000000  0.29580275  1.0
  V  V283  1  0.33333333  0.33333333  0.29580275  1.0
  V  V284  1  0.33333333  0.66666667  0.29580275  1.0
  V  V285  1  0.66666667  0.00000000  0.29580275  1.0
  V  V286  1  0.66666667  0.33333333  0.29580275  1.0
  V  V287  1  0.66666667  0.66666667  0.29580275  1.0
  Ni  Ni288  1  0.22263000  0.27737000  0.25419725  1.0
  Ni  Ni289  1  0.22263000  0.61070333  0.25419725  1.0
  Ni  Ni290  1  0.22263000  0.94403667  0.25419725  1.0
  Ni  Ni291  1  0.55596333  0.27737000  0.25419725  1.0
  Ni  Ni292  1  0.55596333  0.61070333  0.25419725  1.0
  Ni  Ni293  1  0.55596333  0.94403667  0.25419725  1.0
  Ni  Ni294  1  0.88929667  0.27737000  0.25419725  1.0
  Ni  Ni295  1  0.88929667  0.61070333  0.25419725  1.0
  Ni  Ni296  1  0.88929667  0.94403667  0.25419725  1.0
  Ni  Ni297  1  0.22263000  0.11070333  0.27919725  1.0
  Ni  Ni298  1  0.22263000  0.44403667  0.27919725  1.0
  Ni  Ni299  1  0.22263000  0.77737000  0.27919725  1.0
  Ni  Ni300  1  0.55596333  0.11070333  0.27919725  1.0
  Ni  Ni301  1  0.55596333  0.44403667  0.27919725  1.0
  Ni  Ni302  1  0.55596333  0.77737000  0.27919725  1.0
  Ni  Ni303  1  0.88929667  0.11070333  0.27919725  1.0
  Ni  Ni304  1  0.88929667  0.44403667  0.27919725  1.0
  Ni  Ni305  1  0.88929667  0.77737000  0.27919725  1.0
  Ni  Ni306  1  0.11070333  0.05596333  0.28740825  1.0
  Ni  Ni307  1  0.11070333  0.38929667  0.28740825  1.0
  Ni  Ni308  1  0.11070333  0.72263000  0.28740825  1.0
  Ni  Ni309  1  0.44403667  0.05596333  0.28740825  1.0
  Ni  Ni310  1  0.44403667  0.38929667  0.28740825  1.0
  Ni  Ni311  1  0.44403667  0.72263000  0.28740825  1.0
  Ni  Ni312  1  0.77737000  0.05596333  0.28740825  1.0
  Ni  Ni313  1  0.77737000  0.38929667  0.28740825  1.0
  Ni  Ni314  1  0.77737000  0.72263000  0.28740825  1.0
  Ni  Ni315  1  0.11070333  0.22263000  0.26240825  1.0
  Ni  Ni316  1  0.11070333  0.55596333  0.26240825  1.0
  Ni  Ni317  1  0.11070333  0.88929667  0.26240825  1.0
  Ni  Ni318  1  0.44403667  0.22263000  0.26240825  1.0
  Ni  Ni319  1  0.44403667  0.55596333  0.26240825  1.0
  Ni  Ni320  1  0.44403667  0.88929667  0.26240825  1.0
  Ni  Ni321  1  0.77737000  0.22263000  0.26240825  1.0
  Ni  Ni322  1  0.77737000  0.55596333  0.26240825  1.0
  Ni  Ni323  1  0.77737000  0.88929667  0.26240825  1.0
  V  V324  1  0.00000000  0.16666667  0.32080275  1.0
  V  V325  1  0.00000000  0.50000000  0.32080275  1.0
  V  V326  1  0.00000000  0.83333333  0.32080275  1.0
  V  V327  1  0.33333333  0.16666667  0.32080275  1.0
  V  V328  1  0.33333333  0.50000000  0.32080275  1.0
  V  V329  1  0.33333333  0.83333333  0.32080275  1.0
  V  V330  1  0.66666667  0.16666667  0.32080275  1.0
  V  V331  1  0.66666667  0.50000000  0.32080275  1.0
  V  V332  1  0.66666667  0.83333333  0.32080275  1.0
  V  V333  1  0.00000000  0.00000000  0.34580275  1.0
  V  V334  1  0.00000000  0.33333333  0.34580275  1.0
  V  V335  1  0.00000000  0.66666667  0.34580275  1.0
  V  V336  1  0.33333333  0.00000000  0.34580275  1.0
  V  V337  1  0.33333333  0.33333333  0.34580275  1.0
  V  V338  1  0.33333333  0.66666667  0.34580275  1.0
  V  V339  1  0.66666667  0.00000000  0.34580275  1.0
  V  V340  1  0.66666667  0.33333333  0.34580275  1.0
  V  V341  1  0.66666667  0.66666667  0.34580275  1.0
  Ni  Ni342  1  0.22263000  0.27737000  0.30419725  1.0
  Ni  Ni343  1  0.22263000  0.61070333  0.30419725  1.0
  Ni  Ni344  1  0.22263000  0.94403667  0.30419725  1.0
  Ni  Ni345  1  0.55596333  0.27737000  0.30419725  1.0
  Ni  Ni346  1  0.55596333  0.61070333  0.30419725  1.0
  Ni  Ni347  1  0.55596333  0.94403667  0.30419725  1.0
  Ni  Ni348  1  0.88929667  0.27737000  0.30419725  1.0
  Ni  Ni349  1  0.88929667  0.61070333  0.30419725  1.0
  Ni  Ni350  1  0.88929667  0.94403667  0.30419725  1.0
  Ni  Ni351  1  0.22263000  0.11070333  0.32919725  1.0
  Ni  Ni352  1  0.22263000  0.44403667  0.32919725  1.0
  Ni  Ni353  1  0.22263000  0.77737000  0.32919725  1.0
  Ni  Ni354  1  0.55596333  0.11070333  0.32919725  1.0
  Ni  Ni355  1  0.55596333  0.44403667  0.32919725  1.0
  Ni  Ni356  1  0.55596333  0.77737000  0.32919725  1.0
  Ni  Ni357  1  0.88929667  0.11070333  0.32919725  1.0
  Ni  Ni358  1  0.88929667  0.44403667  0.32919725  1.0
  Ni  Ni359  1  0.88929667  0.77737000  0.32919725  1.0
  Ni  Ni360  1  0.11070333  0.05596333  0.33740825  1.0
  Ni  Ni361  1  0.11070333  0.38929667  0.33740825  1.0
  Ni  Ni362  1  0.11070333  0.72263000  0.33740825  1.0
  Ni  Ni363  1  0.44403667  0.05596333  0.33740825  1.0
  Ni  Ni364  1  0.44403667  0.38929667  0.33740825  1.0
  Ni  Ni365  1  0.44403667  0.72263000  0.33740825  1.0
  Ni  Ni366  1  0.77737000  0.05596333  0.33740825  1.0
  Ni  Ni367  1  0.77737000  0.38929667  0.33740825  1.0
  Ni  Ni368  1  0.77737000  0.72263000  0.33740825  1.0
  Ni  Ni369  1  0.11070333  0.22263000  0.31240825  1.0
  Ni  Ni370  1  0.11070333  0.55596333  0.31240825  1.0
  Ni  Ni371  1  0.11070333  0.88929667  0.31240825  1.0
  Ni  Ni372  1  0.44403667  0.22263000  0.31240825  1.0
  Ni  Ni373  1  0.44403667  0.55596333  0.31240825  1.0
  Ni  Ni374  1  0.44403667  0.88929667  0.31240825  1.0
  Ni  Ni375  1  0.77737000  0.22263000  0.31240825  1.0
  Ni  Ni376  1  0.77737000  0.55596333  0.31240825  1.0
  Ni  Ni377  1  0.77737000  0.88929667  0.31240825  1.0
  V  V378  1  0.00000000  0.16666667  0.37080275  1.0
  V  V379  1  0.00000000  0.50000000  0.37080275  1.0
  V  V380  1  0.00000000  0.83333333  0.37080275  1.0
  V  V381  1  0.33333333  0.16666667  0.37080275  1.0
  V  V382  1  0.33333333  0.50000000  0.37080275  1.0
  V  V383  1  0.33333333  0.83333333  0.37080275  1.0
  V  V384  1  0.66666667  0.16666667  0.37080275  1.0
  V  V385  1  0.66666667  0.50000000  0.37080275  1.0
  V  V386  1  0.66666667  0.83333333  0.37080275  1.0
  V  V387  1  0.00000000  0.00000000  0.39580275  1.0
  V  V388  1  0.00000000  0.33333333  0.39580275  1.0
  V  V389  1  0.00000000  0.66666667  0.39580275  1.0
  V  V390  1  0.33333333  0.00000000  0.39580275  1.0
  V  V391  1  0.33333333  0.33333333  0.39580275  1.0
  V  V392  1  0.33333333  0.66666667  0.39580275  1.0
  V  V393  1  0.66666667  0.00000000  0.39580275  1.0
  V  V394  1  0.66666667  0.33333333  0.39580275  1.0
  V  V395  1  0.66666667  0.66666667  0.39580275  1.0
  Ni  Ni396  1  0.22263000  0.27737000  0.35419725  1.0
  Ni  Ni397  1  0.22263000  0.61070333  0.35419725  1.0
  Ni  Ni398  1  0.22263000  0.94403667  0.35419725  1.0
  Ni  Ni399  1  0.55596333  0.27737000  0.35419725  1.0
  Ni  Ni400  1  0.55596333  0.61070333  0.35419725  1.0
  Ni  Ni401  1  0.55596333  0.94403667  0.35419725  1.0
  Ni  Ni402  1  0.88929667  0.27737000  0.35419725  1.0
  Ni  Ni403  1  0.88929667  0.61070333  0.35419725  1.0
  Ni  Ni404  1  0.88929667  0.94403667  0.35419725  1.0
  Ni  Ni405  1  0.22263000  0.11070333  0.37919725  1.0
  Ni  Ni406  1  0.22263000  0.44403667  0.37919725  1.0
  Ni  Ni407  1  0.22263000  0.77737000  0.37919725  1.0
  Ni  Ni408  1  0.55596333  0.11070333  0.37919725  1.0
  Ni  Ni409  1  0.55596333  0.44403667  0.37919725  1.0
  Ni  Ni410  1  0.55596333  0.77737000  0.37919725  1.0
  Ni  Ni411  1  0.88929667  0.11070333  0.37919725  1.0
  Ni  Ni412  1  0.88929667  0.44403667  0.37919725  1.0
  Ni  Ni413  1  0.88929667  0.77737000  0.37919725  1.0
  Ni  Ni414  1  0.11070333  0.05596333  0.38740825  1.0
  Ni  Ni415  1  0.11070333  0.38929667  0.38740825  1.0
  Ni  Ni416  1  0.11070333  0.72263000  0.38740825  1.0
  Ni  Ni417  1  0.44403667  0.05596333  0.38740825  1.0
  Ni  Ni418  1  0.44403667  0.38929667  0.38740825  1.0
  Ni  Ni419  1  0.44403667  0.72263000  0.38740825  1.0
  Ni  Ni420  1  0.77737000  0.05596333  0.38740825  1.0
  Ni  Ni421  1  0.77737000  0.38929667  0.38740825  1.0
  Ni  Ni422  1  0.77737000  0.72263000  0.38740825  1.0
  Ni  Ni423  1  0.11070333  0.22263000  0.36240825  1.0
  Ni  Ni424  1  0.11070333  0.55596333  0.36240825  1.0
  Ni  Ni425  1  0.11070333  0.88929667  0.36240825  1.0
  Ni  Ni426  1  0.44403667  0.22263000  0.36240825  1.0
  Ni  Ni427  1  0.44403667  0.55596333  0.36240825  1.0
  Ni  Ni428  1  0.44403667  0.88929667  0.36240825  1.0
  Ni  Ni429  1  0.77737000  0.22263000  0.36240825  1.0
  Ni  Ni430  1  0.77737000  0.55596333  0.36240825  1.0
  Ni  Ni431  1  0.77737000  0.88929667  0.36240825  1.0
