# generated using pymatgen
data_VNi2
_symmetry_space_group_name_H-M   'P 1'
_cell_length_a   13.14528051
_cell_length_b   13.14528051
_cell_length_c   39.43584153
_cell_angle_alpha   131.84154215
_cell_angle_beta   59.90084221
_cell_angle_gamma   146.55603549
_symmetry_Int_Tables_number   1
_chemical_formula_structural   VNi2
_chemical_formula_sum   'V36 Ni72'
_cell_volume   2772.55353907
_cell_formula_units_Z   36
loop_
 _symmetry_equiv_pos_site_id
 _symmetry_equiv_pos_as_xyz
  1  'x, y, z'
loop_
 _atom_site_type_symbol
 _atom_site_label
 _atom_site_symmetry_multiplicity
 _atom_site_fract_x
 _atom_site_fract_y
 _atom_site_fract_z
 _atom_site_occupancy
  V  V0  1  0.00000000  0.00000000  0.09266056  1.0
  V  V1  1  0.00000000  0.33333333  0.09266056  1.0
  V  V2  1  1.00000000  0.66666667  0.09266056  1.0
  V  V3  1  0.33333333  0.00000000  0.09266056  1.0
  V  V4  1  0.33333333  0.33333333  0.09266056  1.0
  V  V5  1  0.33333333  0.66666667  0.09266056  1.0
  V  V6  1  0.66666667  0.00000000  0.09266056  1.0
  V  V7  1  0.66666667  0.33333333  0.09266056  1.0
  V  V8  1  0.66666667  0.66666667  0.09266056  1.0
  Ni  Ni9  1  0.22263000  0.00000000  0.05575944  1.0
  Ni  Ni10  1  0.22263000  0.33333333  0.05575944  1.0
  Ni  Ni11  1  0.22263000  0.66666667  0.05575944  1.0
  Ni  Ni12  1  0.55596333  0.00000000  0.05575944  1.0
  Ni  Ni13  1  0.55596333  0.33333333  0.05575944  1.0
  Ni  Ni14  1  0.55596333  0.66666667  0.05575944  1.0
  Ni  Ni15  1  0.88929667  0.00000000  0.05575944  1.0
  Ni  Ni16  1  0.88929667  0.33333333  0.05575944  1.0
  Ni  Ni17  1  0.88929667  0.66666667  0.05575944  1.0
  Ni  Ni18  1  0.11070333  0.00000000  0.01845056  1.0
  Ni  Ni19  1  0.11070333  0.33333333  0.01845056  1.0
  Ni  Ni20  1  0.11070333  0.66666667  0.01845056  1.0
  Ni  Ni21  1  0.44403667  0.00000000  0.01845056  1.0
  Ni  Ni22  1  0.44403667  0.33333333  0.01845056  1.0
  Ni  Ni23  1  0.44403667  0.66666667  0.01845056  1.0
  Ni  Ni24  1  0.77737000  0.00000000  0.01845056  1.0
  Ni  Ni25  1  0.77737000  0.33333333  0.01845056  1.0
  Ni  Ni26  1  0.77737000  0.66666667  0.01845056  1.0
  V  V27  1  0.00000000  0.00000000  0.20377167  1.0
  V  V28  1  0.00000000  0.33333333  0.20377167  1.0
  V  V29  1  1.00000000  0.66666667  0.20377167  1.0
  V  V30  1  0.33333333  0.00000000  0.20377167  1.0
  V  V31  1  0.33333333  0.33333333  0.20377167  1.0
  V  V32  1  0.33333333  0.66666667  0.20377167  1.0
  V  V33  1  0.66666667  0.00000000  0.20377167  1.0
  V  V34  1  0.66666667  0.33333333  0.20377167  1.0
  V  V35  1  0.66666667  0.66666667  0.20377167  1.0
  Ni  Ni36  1  0.22263000  0.00000000  0.16687056  1.0
  Ni  Ni37  1  0.22263000  0.33333333  0.16687056  1.0
  Ni  Ni38  1  0.22263000  0.66666667  0.16687056  1.0
  Ni  Ni39  1  0.55596333  0.00000000  0.16687056  1.0
  Ni  Ni40  1  0.55596333  0.33333333  0.16687056  1.0
  Ni  Ni41  1  0.55596333  0.66666667  0.16687056  1.0
  Ni  Ni42  1  0.88929667  0.00000000  0.16687056  1.0
  Ni  Ni43  1  0.88929667  0.33333333  0.16687056  1.0
  Ni  Ni44  1  0.88929667  0.66666667  0.16687056  1.0
  Ni  Ni45  1  0.11070333  0.00000000  0.12956167  1.0
  Ni  Ni46  1  0.11070333  0.33333333  0.12956167  1.0
  Ni  Ni47  1  0.11070333  0.66666667  0.12956167  1.0
  Ni  Ni48  1  0.44403667  0.00000000  0.12956167  1.0
  Ni  Ni49  1  0.44403667  0.33333333  0.12956167  1.0
  Ni  Ni50  1  0.44403667  0.66666667  0.12956167  1.0
  Ni  Ni51  1  0.77737000  0.00000000  0.12956167  1.0
  Ni  Ni52  1  0.77737000  0.33333333  0.12956167  1.0
  Ni  Ni53  1  0.77737000  0.66666667  0.12956167  1.0
  V  V54  1  0.00000000  0.00000000  0.31488278  1.0
  V  V55  1  0.00000000  0.33333333  0.31488278  1.0
  V  V56  1  1.00000000  0.66666667  0.31488278  1.0
  V  V57  1  0.33333333  0.00000000  0.31488278  1.0
  V  V58  1  0.33333333  0.33333333  0.31488278  1.0
  V  V59  1  0.33333333  0.66666667  0.31488278  1.0
  V  V60  1  0.66666667  0.00000000  0.31488278  1.0
  V  V61  1  0.66666667  0.33333333  0.31488278  1.0
  V  V62  1  0.66666667  0.66666667  0.31488278  1.0
  Ni  Ni63  1  0.22263000  0.00000000  0.27798167  1.0
  Ni  Ni64  1  0.22263000  0.33333333  0.27798167  1.0
  Ni  Ni65  1  0.22263000  0.66666667  0.27798167  1.0
  Ni  Ni66  1  0.55596333  0.00000000  0.27798167  1.0
  Ni  Ni67  1  0.55596333  0.33333333  0.27798167  1.0
  Ni  Ni68  1  0.55596333  0.66666667  0.27798167  1.0
  Ni  Ni69  1  0.88929667  0.00000000  0.27798167  1.0
  Ni  Ni70  1  0.88929667  0.33333333  0.27798167  1.0
  Ni  Ni71  1  0.88929667  0.66666667  0.27798167  1.0
  Ni  Ni72  1  0.11070333  0.00000000  0.24067278  1.0
  Ni  Ni73  1  0.11070333  0.33333333  0.24067278  1.0
  Ni  Ni74  1  0.11070333  0.66666667  0.24067278  1.0
  Ni  Ni75  1  0.44403667  0.00000000  0.24067278  1.0
  Ni  Ni76  1  0.44403667  0.33333333  0.24067278  1.0
  Ni  Ni77  1  0.44403667  0.66666667  0.24067278  1.0
  Ni  Ni78  1  0.77737000  0.00000000  0.24067278  1.0
  Ni  Ni79  1  0.77737000  0.33333333  0.24067278  1.0
  Ni  Ni80  1  0.77737000  0.66666667  0.24067278  1.0
  V  V81  1  0.00000000  0.00000000  0.42599389  1.0
  V  V82  1  0.00000000  0.33333333  0.42599389  1.0
  V  V83  1  1.00000000  0.66666667  0.42599389  1.0
  V  V84  1  0.33333333  0.00000000  0.42599389  1.0
  V  V85  1  0.33333333  0.33333333  0.42599389  1.0
  V  V86  1  0.33333333  0.66666667  0.42599389  1.0
  V  V87  1  0.66666667  0.00000000  0.42599389  1.0
  V  V88  1  0.66666667  0.33333333  0.42599389  1.0
  V  V89  1  0.66666667  0.66666667  0.42599389  1.0
  Ni  Ni90  1  0.22263000  0.00000000  0.38909278  1.0
  Ni  Ni91  1  0.22263000  0.33333333  0.38909278  1.0
  Ni  Ni92  1  0.22263000  0.66666667  0.38909278  1.0
  Ni  Ni93  1  0.55596333  0.00000000  0.38909278  1.0
  Ni  Ni94  1  0.55596333  0.33333333  0.38909278  1.0
  Ni  Ni95  1  0.55596333  0.66666667  0.38909278  1.0
  Ni  Ni96  1  0.88929667  0.00000000  0.38909278  1.0
  Ni  Ni97  1  0.88929667  0.33333333  0.38909278  1.0
  Ni  Ni98  1  0.88929667  0.66666667  0.38909278  1.0
  Ni  Ni99  1  0.11070333  0.00000000  0.35178389  1.0
  Ni  Ni100  1  0.11070333  0.33333333  0.35178389  1.0
  Ni  Ni101  1  0.11070333  0.66666667  0.35178389  1.0
  Ni  Ni102  1  0.44403667  0.00000000  0.35178389  1.0
  Ni  Ni103  1  0.44403667  0.33333333  0.35178389  1.0
  Ni  Ni104  1  0.44403667  0.66666667  0.35178389  1.0
  Ni  Ni105  1  0.77737000  0.00000000  0.35178389  1.0
  Ni  Ni106  1  0.77737000  0.33333333  0.35178389  1.0
  Ni  Ni107  1  0.77737000  0.66666667  0.35178389  1.0
