# generated using pymatgen
data_VNi2
_symmetry_space_group_name_H-M   'P 1'
_cell_length_a   13.12557385
_cell_length_b   10.72653600
_cell_length_c   30.67232119
_cell_angle_alpha   65.92077108
_cell_angle_beta   60.04957889
_cell_angle_gamma   35.19212127
_symmetry_Int_Tables_number   1
_chemical_formula_structural   VNi2
_chemical_formula_sum   'V27 Ni54'
_cell_volume   2156.43053039
_cell_formula_units_Z   27
loop_
 _symmetry_equiv_pos_site_id
 _symmetry_equiv_pos_as_xyz
  1  'x, y, z'
loop_
 _atom_site_type_symbol
 _atom_site_label
 _atom_site_symmetry_multiplicity
 _atom_site_fract_x
 _atom_site_fract_y
 _atom_site_fract_z
 _atom_site_occupancy
  V  V0  1  0.00000000  0.00000000  0.11887286  1.0
  V  V1  1  0.00000000  0.33333333  0.11887286  1.0
  V  V2  1  0.00000000  0.66666667  0.11887286  1.0
  V  V3  1  0.33333333  0.00000000  0.11887286  1.0
  V  V4  1  0.33333333  0.33333333  0.11887286  1.0
  V  V5  1  0.33333333  0.66666667  0.11887286  1.0
  V  V6  1  0.66666667  0.00000000  0.11887286  1.0
  V  V7  1  0.66666667  0.33333333  0.11887286  1.0
  V  V8  1  0.66666667  0.66666667  0.11887286  1.0
  Ni  Ni9  1  0.22263000  0.00000000  0.07090429  1.0
  Ni  Ni10  1  0.22263000  0.33333333  0.07090429  1.0
  Ni  Ni11  1  0.22263000  0.66666667  0.07090429  1.0
  Ni  Ni12  1  0.55596333  0.00000000  0.07090429  1.0
  Ni  Ni13  1  0.55596333  0.33333333  0.07090429  1.0
  Ni  Ni14  1  0.55596333  0.66666667  0.07090429  1.0
  Ni  Ni15  1  0.88929667  0.00000000  0.07090429  1.0
  Ni  Ni16  1  0.88929667  0.33333333  0.07090429  1.0
  Ni  Ni17  1  0.88929667  0.66666667  0.07090429  1.0
  Ni  Ni18  1  0.11070333  0.00000000  0.02398429  1.0
  Ni  Ni19  1  0.11070333  0.33333333  0.02398429  1.0
  Ni  Ni20  1  0.11070333  0.66666667  0.02398429  1.0
  Ni  Ni21  1  0.44403667  0.00000000  0.02398429  1.0
  Ni  Ni22  1  0.44403667  0.33333333  0.02398429  1.0
  Ni  Ni23  1  0.44403667  0.66666667  0.02398429  1.0
  Ni  Ni24  1  0.77737000  0.00000000  0.02398429  1.0
  Ni  Ni25  1  0.77737000  0.33333333  0.02398429  1.0
  Ni  Ni26  1  0.77737000  0.66666667  0.02398429  1.0
  V  V27  1  0.00000000  0.00000000  0.26173000  1.0
  V  V28  1  0.00000000  0.33333333  0.26173000  1.0
  V  V29  1  0.00000000  0.66666667  0.26173000  1.0
  V  V30  1  0.33333333  0.00000000  0.26173000  1.0
  V  V31  1  0.33333333  0.33333333  0.26173000  1.0
  V  V32  1  0.33333333  0.66666667  0.26173000  1.0
  V  V33  1  0.66666667  0.00000000  0.26173000  1.0
  V  V34  1  0.66666667  0.33333333  0.26173000  1.0
  V  V35  1  0.66666667  0.66666667  0.26173000  1.0
  Ni  Ni36  1  0.22263000  0.00000000  0.21376143  1.0
  Ni  Ni37  1  0.22263000  0.33333333  0.21376143  1.0
  Ni  Ni38  1  0.22263000  0.66666667  0.21376143  1.0
  Ni  Ni39  1  0.55596333  0.00000000  0.21376143  1.0
  Ni  Ni40  1  0.55596333  0.33333333  0.21376143  1.0
  Ni  Ni41  1  0.55596333  0.66666667  0.21376143  1.0
  Ni  Ni42  1  0.88929667  0.00000000  0.21376143  1.0
  Ni  Ni43  1  0.88929667  0.33333333  0.21376143  1.0
  Ni  Ni44  1  0.88929667  0.66666667  0.21376143  1.0
  Ni  Ni45  1  0.11070333  0.00000000  0.16684143  1.0
  Ni  Ni46  1  0.11070333  0.33333333  0.16684143  1.0
  Ni  Ni47  1  0.11070333  0.66666667  0.16684143  1.0
  Ni  Ni48  1  0.44403667  0.00000000  0.16684143  1.0
  Ni  Ni49  1  0.44403667  0.33333333  0.16684143  1.0
  Ni  Ni50  1  0.44403667  0.66666667  0.16684143  1.0
  Ni  Ni51  1  0.77737000  0.00000000  0.16684143  1.0
  Ni  Ni52  1  0.77737000  0.33333333  0.16684143  1.0
  Ni  Ni53  1  0.77737000  0.66666667  0.16684143  1.0
  V  V54  1  0.00000000  0.00000000  0.40458714  1.0
  V  V55  1  0.00000000  0.33333333  0.40458714  1.0
  V  V56  1  0.00000000  0.66666667  0.40458714  1.0
  V  V57  1  0.33333333  0.00000000  0.40458714  1.0
  V  V58  1  0.33333333  0.33333333  0.40458714  1.0
  V  V59  1  0.33333333  0.66666667  0.40458714  1.0
  V  V60  1  0.66666667  0.00000000  0.40458714  1.0
  V  V61  1  0.66666667  0.33333333  0.40458714  1.0
  V  V62  1  0.66666667  0.66666667  0.40458714  1.0
  Ni  Ni63  1  0.22263000  0.00000000  0.35661857  1.0
  Ni  Ni64  1  0.22263000  0.33333333  0.35661857  1.0
  Ni  Ni65  1  0.22263000  0.66666667  0.35661857  1.0
  Ni  Ni66  1  0.55596333  0.00000000  0.35661857  1.0
  Ni  Ni67  1  0.55596333  0.33333333  0.35661857  1.0
  Ni  Ni68  1  0.55596333  0.66666667  0.35661857  1.0
  Ni  Ni69  1  0.88929667  0.00000000  0.35661857  1.0
  Ni  Ni70  1  0.88929667  0.33333333  0.35661857  1.0
  Ni  Ni71  1  0.88929667  0.66666667  0.35661857  1.0
  Ni  Ni72  1  0.11070333  0.00000000  0.30969857  1.0
  Ni  Ni73  1  0.11070333  0.33333333  0.30969857  1.0
  Ni  Ni74  1  0.11070333  0.66666667  0.30969857  1.0
  Ni  Ni75  1  0.44403667  0.00000000  0.30969857  1.0
  Ni  Ni76  1  0.44403667  0.33333333  0.30969857  1.0
  Ni  Ni77  1  0.44403667  0.66666667  0.30969857  1.0
  Ni  Ni78  1  0.77737000  0.00000000  0.30969857  1.0
  Ni  Ni79  1  0.77737000  0.33333333  0.30969857  1.0
  Ni  Ni80  1  0.77737000  0.66666667  0.30969857  1.0
