# generated using pymatgen
data_VNi2
_symmetry_space_group_name_H-M   'P 1'
_cell_length_a   13.12557385
_cell_length_b   24.00281284
_cell_length_c   118.30752459
_cell_angle_alpha   155.92077108
_cell_angle_beta   119.95042111
_cell_angle_gamma   79.53538333
_symmetry_Int_Tables_number   1
_chemical_formula_structural   VNi2
_chemical_formula_sum   'V99 Ni198'
_cell_volume   8317.66061722
_cell_formula_units_Z   99
loop_
 _symmetry_equiv_pos_site_id
 _symmetry_equiv_pos_as_xyz
  1  'x, y, z'
loop_
 _atom_site_type_symbol
 _atom_site_label
 _atom_site_symmetry_multiplicity
 _atom_site_fract_x
 _atom_site_fract_y
 _atom_site_fract_z
 _atom_site_occupancy
  V  V0  1  0.00000000  0.00000000  0.03081889  1.0
  V  V1  1  0.00000000  0.33333333  0.03081889  1.0
  V  V2  1  0.00000000  0.66666667  0.03081889  1.0
  V  V3  1  0.33333333  0.00000000  0.03081889  1.0
  V  V4  1  0.33333333  0.33333333  0.03081889  1.0
  V  V5  1  0.33333333  0.66666667  0.03081889  1.0
  V  V6  1  0.66666667  0.00000000  0.03081889  1.0
  V  V7  1  0.66666667  0.33333333  0.03081889  1.0
  V  V8  1  0.66666667  0.66666667  0.03081889  1.0
  Ni  Ni9  1  0.22263000  0.33333333  0.00621815  1.0
  Ni  Ni10  1  0.22263000  0.66666667  0.00621815  1.0
  Ni  Ni11  1  0.22263000  1.00000000  0.00621815  1.0
  Ni  Ni12  1  0.55596333  0.33333333  0.00621815  1.0
  Ni  Ni13  1  0.55596333  0.66666667  0.00621815  1.0
  Ni  Ni14  1  0.55596333  1.00000000  0.00621815  1.0
  Ni  Ni15  1  0.88929667  0.33333333  0.00621815  1.0
  Ni  Ni16  1  0.88929667  0.66666667  0.00621815  1.0
  Ni  Ni17  1  0.88929667  1.00000000  0.00621815  1.0
  Ni  Ni18  1  0.11070333  0.33333333  0.01838259  1.0
  Ni  Ni19  1  0.11070333  0.66666667  0.01838259  1.0
  Ni  Ni20  1  0.11070333  1.00000000  0.01838259  1.0
  Ni  Ni21  1  0.44403667  0.33333333  0.01838259  1.0
  Ni  Ni22  1  0.44403667  0.66666667  0.01838259  1.0
  Ni  Ni23  1  0.44403667  1.00000000  0.01838259  1.0
  Ni  Ni24  1  0.77737000  0.33333333  0.01838259  1.0
  Ni  Ni25  1  0.77737000  0.66666667  0.01838259  1.0
  Ni  Ni26  1  0.77737000  1.00000000  0.01838259  1.0
  V  V27  1  0.00000000  0.00000000  0.06785593  1.0
  V  V28  1  0.00000000  0.33333333  0.06785593  1.0
  V  V29  1  0.00000000  0.66666667  0.06785593  1.0
  V  V30  1  0.33333333  0.00000000  0.06785593  1.0
  V  V31  1  0.33333333  0.33333333  0.06785593  1.0
  V  V32  1  0.33333333  0.66666667  0.06785593  1.0
  V  V33  1  0.66666667  0.00000000  0.06785593  1.0
  V  V34  1  0.66666667  0.33333333  0.06785593  1.0
  V  V35  1  0.66666667  0.66666667  0.06785593  1.0
  Ni  Ni36  1  0.22263000  0.33333333  0.04325519  1.0
  Ni  Ni37  1  0.22263000  0.66666667  0.04325519  1.0
  Ni  Ni38  1  0.22263000  1.00000000  0.04325519  1.0
  Ni  Ni39  1  0.55596333  0.33333333  0.04325519  1.0
  Ni  Ni40  1  0.55596333  0.66666667  0.04325519  1.0
  Ni  Ni41  1  0.55596333  1.00000000  0.04325519  1.0
  Ni  Ni42  1  0.88929667  0.33333333  0.04325519  1.0
  Ni  Ni43  1  0.88929667  0.66666667  0.04325519  1.0
  Ni  Ni44  1  0.88929667  1.00000000  0.04325519  1.0
  Ni  Ni45  1  0.11070333  0.33333333  0.05541963  1.0
  Ni  Ni46  1  0.11070333  0.66666667  0.05541963  1.0
  Ni  Ni47  1  0.11070333  1.00000000  0.05541963  1.0
  Ni  Ni48  1  0.44403667  0.33333333  0.05541963  1.0
  Ni  Ni49  1  0.44403667  0.66666667  0.05541963  1.0
  Ni  Ni50  1  0.44403667  1.00000000  0.05541963  1.0
  Ni  Ni51  1  0.77737000  0.33333333  0.05541963  1.0
  Ni  Ni52  1  0.77737000  0.66666667  0.05541963  1.0
  Ni  Ni53  1  0.77737000  1.00000000  0.05541963  1.0
  V  V54  1  0.00000000  0.00000000  0.10489296  1.0
  V  V55  1  0.00000000  0.33333333  0.10489296  1.0
  V  V56  1  0.00000000  0.66666667  0.10489296  1.0
  V  V57  1  0.33333333  0.00000000  0.10489296  1.0
  V  V58  1  0.33333333  0.33333333  0.10489296  1.0
  V  V59  1  0.33333333  0.66666667  0.10489296  1.0
  V  V60  1  0.66666667  0.00000000  0.10489296  1.0
  V  V61  1  0.66666667  0.33333333  0.10489296  1.0
  V  V62  1  0.66666667  0.66666667  0.10489296  1.0
  Ni  Ni63  1  0.22263000  0.33333333  0.08029222  1.0
  Ni  Ni64  1  0.22263000  0.66666667  0.08029222  1.0
  Ni  Ni65  1  0.22263000  1.00000000  0.08029222  1.0
  Ni  Ni66  1  0.55596333  0.33333333  0.08029222  1.0
  Ni  Ni67  1  0.55596333  0.66666667  0.08029222  1.0
  Ni  Ni68  1  0.55596333  1.00000000  0.08029222  1.0
  Ni  Ni69  1  0.88929667  0.33333333  0.08029222  1.0
  Ni  Ni70  1  0.88929667  0.66666667  0.08029222  1.0
  Ni  Ni71  1  0.88929667  1.00000000  0.08029222  1.0
  Ni  Ni72  1  0.11070333  0.33333333  0.09245667  1.0
  Ni  Ni73  1  0.11070333  0.66666667  0.09245667  1.0
  Ni  Ni74  1  0.11070333  1.00000000  0.09245667  1.0
  Ni  Ni75  1  0.44403667  0.33333333  0.09245667  1.0
  Ni  Ni76  1  0.44403667  0.66666667  0.09245667  1.0
  Ni  Ni77  1  0.44403667  1.00000000  0.09245667  1.0
  Ni  Ni78  1  0.77737000  0.33333333  0.09245667  1.0
  Ni  Ni79  1  0.77737000  0.66666667  0.09245667  1.0
  Ni  Ni80  1  0.77737000  1.00000000  0.09245667  1.0
  V  V81  1  0.00000000  0.00000000  0.14193000  1.0
  V  V82  1  0.00000000  0.33333333  0.14193000  1.0
  V  V83  1  0.00000000  0.66666667  0.14193000  1.0
  V  V84  1  0.33333333  0.00000000  0.14193000  1.0
  V  V85  1  0.33333333  0.33333333  0.14193000  1.0
  V  V86  1  0.33333333  0.66666667  0.14193000  1.0
  V  V87  1  0.66666667  0.00000000  0.14193000  1.0
  V  V88  1  0.66666667  0.33333333  0.14193000  1.0
  V  V89  1  0.66666667  0.66666667  0.14193000  1.0
  Ni  Ni90  1  0.22263000  0.33333333  0.11732926  1.0
  Ni  Ni91  1  0.22263000  0.66666667  0.11732926  1.0
  Ni  Ni92  1  0.22263000  1.00000000  0.11732926  1.0
  Ni  Ni93  1  0.55596333  0.33333333  0.11732926  1.0
  Ni  Ni94  1  0.55596333  0.66666667  0.11732926  1.0
  Ni  Ni95  1  0.55596333  1.00000000  0.11732926  1.0
  Ni  Ni96  1  0.88929667  0.33333333  0.11732926  1.0
  Ni  Ni97  1  0.88929667  0.66666667  0.11732926  1.0
  Ni  Ni98  1  0.88929667  1.00000000  0.11732926  1.0
  Ni  Ni99  1  0.11070333  0.33333333  0.12949370  1.0
  Ni  Ni100  1  0.11070333  0.66666667  0.12949370  1.0
  Ni  Ni101  1  0.11070333  1.00000000  0.12949370  1.0
  Ni  Ni102  1  0.44403667  0.33333333  0.12949370  1.0
  Ni  Ni103  1  0.44403667  0.66666667  0.12949370  1.0
  Ni  Ni104  1  0.44403667  1.00000000  0.12949370  1.0
  Ni  Ni105  1  0.77737000  0.33333333  0.12949370  1.0
  Ni  Ni106  1  0.77737000  0.66666667  0.12949370  1.0
  Ni  Ni107  1  0.77737000  1.00000000  0.12949370  1.0
  V  V108  1  0.00000000  0.00000000  0.17896704  1.0
  V  V109  1  0.00000000  0.33333333  0.17896704  1.0
  V  V110  1  0.00000000  0.66666667  0.17896704  1.0
  V  V111  1  0.33333333  0.00000000  0.17896704  1.0
  V  V112  1  0.33333333  0.33333333  0.17896704  1.0
  V  V113  1  0.33333333  0.66666667  0.17896704  1.0
  V  V114  1  0.66666667  0.00000000  0.17896704  1.0
  V  V115  1  0.66666667  0.33333333  0.17896704  1.0
  V  V116  1  0.66666667  0.66666667  0.17896704  1.0
  Ni  Ni117  1  0.22263000  0.33333333  0.15436630  1.0
  Ni  Ni118  1  0.22263000  0.66666667  0.15436630  1.0
  Ni  Ni119  1  0.22263000  1.00000000  0.15436630  1.0
  Ni  Ni120  1  0.55596333  0.33333333  0.15436630  1.0
  Ni  Ni121  1  0.55596333  0.66666667  0.15436630  1.0
  Ni  Ni122  1  0.55596333  1.00000000  0.15436630  1.0
  Ni  Ni123  1  0.88929667  0.33333333  0.15436630  1.0
  Ni  Ni124  1  0.88929667  0.66666667  0.15436630  1.0
  Ni  Ni125  1  0.88929667  1.00000000  0.15436630  1.0
  Ni  Ni126  1  0.11070333  0.33333333  0.16653074  1.0
  Ni  Ni127  1  0.11070333  0.66666667  0.16653074  1.0
  Ni  Ni128  1  0.11070333  1.00000000  0.16653074  1.0
  Ni  Ni129  1  0.44403667  0.33333333  0.16653074  1.0
  Ni  Ni130  1  0.44403667  0.66666667  0.16653074  1.0
  Ni  Ni131  1  0.44403667  1.00000000  0.16653074  1.0
  Ni  Ni132  1  0.77737000  0.33333333  0.16653074  1.0
  Ni  Ni133  1  0.77737000  0.66666667  0.16653074  1.0
  Ni  Ni134  1  0.77737000  1.00000000  0.16653074  1.0
  V  V135  1  0.00000000  0.00000000  0.21600407  1.0
  V  V136  1  0.00000000  0.33333333  0.21600407  1.0
  V  V137  1  0.00000000  0.66666667  0.21600407  1.0
  V  V138  1  0.33333333  0.00000000  0.21600407  1.0
  V  V139  1  0.33333333  0.33333333  0.21600407  1.0
  V  V140  1  0.33333333  0.66666667  0.21600407  1.0
  V  V141  1  0.66666667  0.00000000  0.21600407  1.0
  V  V142  1  0.66666667  0.33333333  0.21600407  1.0
  V  V143  1  0.66666667  0.66666667  0.21600407  1.0
  Ni  Ni144  1  0.22263000  0.33333333  0.19140333  1.0
  Ni  Ni145  1  0.22263000  0.66666667  0.19140333  1.0
  Ni  Ni146  1  0.22263000  1.00000000  0.19140333  1.0
  Ni  Ni147  1  0.55596333  0.33333333  0.19140333  1.0
  Ni  Ni148  1  0.55596333  0.66666667  0.19140333  1.0
  Ni  Ni149  1  0.55596333  1.00000000  0.19140333  1.0
  Ni  Ni150  1  0.88929667  0.33333333  0.19140333  1.0
  Ni  Ni151  1  0.88929667  0.66666667  0.19140333  1.0
  Ni  Ni152  1  0.88929667  1.00000000  0.19140333  1.0
  Ni  Ni153  1  0.11070333  0.33333333  0.20356778  1.0
  Ni  Ni154  1  0.11070333  0.66666667  0.20356778  1.0
  Ni  Ni155  1  0.11070333  1.00000000  0.20356778  1.0
  Ni  Ni156  1  0.44403667  0.33333333  0.20356778  1.0
  Ni  Ni157  1  0.44403667  0.66666667  0.20356778  1.0
  Ni  Ni158  1  0.44403667  1.00000000  0.20356778  1.0
  Ni  Ni159  1  0.77737000  0.33333333  0.20356778  1.0
  Ni  Ni160  1  0.77737000  0.66666667  0.20356778  1.0
  Ni  Ni161  1  0.77737000  1.00000000  0.20356778  1.0
  V  V162  1  0.00000000  0.00000000  0.25304111  1.0
  V  V163  1  0.00000000  0.33333333  0.25304111  1.0
  V  V164  1  0.00000000  0.66666667  0.25304111  1.0
  V  V165  1  0.33333333  0.00000000  0.25304111  1.0
  V  V166  1  0.33333333  0.33333333  0.25304111  1.0
  V  V167  1  0.33333333  0.66666667  0.25304111  1.0
  V  V168  1  0.66666667  0.00000000  0.25304111  1.0
  V  V169  1  0.66666667  0.33333333  0.25304111  1.0
  V  V170  1  0.66666667  0.66666667  0.25304111  1.0
  Ni  Ni171  1  0.22263000  0.33333333  0.22844037  1.0
  Ni  Ni172  1  0.22263000  0.66666667  0.22844037  1.0
  Ni  Ni173  1  0.22263000  1.00000000  0.22844037  1.0
  Ni  Ni174  1  0.55596333  0.33333333  0.22844037  1.0
  Ni  Ni175  1  0.55596333  0.66666667  0.22844037  1.0
  Ni  Ni176  1  0.55596333  1.00000000  0.22844037  1.0
  Ni  Ni177  1  0.88929667  0.33333333  0.22844037  1.0
  Ni  Ni178  1  0.88929667  0.66666667  0.22844037  1.0
  Ni  Ni179  1  0.88929667  1.00000000  0.22844037  1.0
  Ni  Ni180  1  0.11070333  0.33333333  0.24060481  1.0
  Ni  Ni181  1  0.11070333  0.66666667  0.24060481  1.0
  Ni  Ni182  1  0.11070333  1.00000000  0.24060481  1.0
  Ni  Ni183  1  0.44403667  0.33333333  0.24060481  1.0
  Ni  Ni184  1  0.44403667  0.66666667  0.24060481  1.0
  Ni  Ni185  1  0.44403667  1.00000000  0.24060481  1.0
  Ni  Ni186  1  0.77737000  0.33333333  0.24060481  1.0
  Ni  Ni187  1  0.77737000  0.66666667  0.24060481  1.0
  Ni  Ni188  1  0.77737000  1.00000000  0.24060481  1.0
  V  V189  1  0.00000000  0.00000000  0.29007815  1.0
  V  V190  1  0.00000000  0.33333333  0.29007815  1.0
  V  V191  1  0.00000000  0.66666667  0.29007815  1.0
  V  V192  1  0.33333333  0.00000000  0.29007815  1.0
  V  V193  1  0.33333333  0.33333333  0.29007815  1.0
  V  V194  1  0.33333333  0.66666667  0.29007815  1.0
  V  V195  1  0.66666667  0.00000000  0.29007815  1.0
  V  V196  1  0.66666667  0.33333333  0.29007815  1.0
  V  V197  1  0.66666667  0.66666667  0.29007815  1.0
  Ni  Ni198  1  0.22263000  0.33333333  0.26547741  1.0
  Ni  Ni199  1  0.22263000  0.66666667  0.26547741  1.0
  Ni  Ni200  1  0.22263000  1.00000000  0.26547741  1.0
  Ni  Ni201  1  0.55596333  0.33333333  0.26547741  1.0
  Ni  Ni202  1  0.55596333  0.66666667  0.26547741  1.0
  Ni  Ni203  1  0.55596333  1.00000000  0.26547741  1.0
  Ni  Ni204  1  0.88929667  0.33333333  0.26547741  1.0
  Ni  Ni205  1  0.88929667  0.66666667  0.26547741  1.0
  Ni  Ni206  1  0.88929667  1.00000000  0.26547741  1.0
  Ni  Ni207  1  0.11070333  0.33333333  0.27764185  1.0
  Ni  Ni208  1  0.11070333  0.66666667  0.27764185  1.0
  Ni  Ni209  1  0.11070333  1.00000000  0.27764185  1.0
  Ni  Ni210  1  0.44403667  0.33333333  0.27764185  1.0
  Ni  Ni211  1  0.44403667  0.66666667  0.27764185  1.0
  Ni  Ni212  1  0.44403667  1.00000000  0.27764185  1.0
  Ni  Ni213  1  0.77737000  0.33333333  0.27764185  1.0
  Ni  Ni214  1  0.77737000  0.66666667  0.27764185  1.0
  Ni  Ni215  1  0.77737000  1.00000000  0.27764185  1.0
  V  V216  1  0.00000000  0.00000000  0.32711519  1.0
  V  V217  1  0.00000000  0.33333333  0.32711519  1.0
  V  V218  1  0.00000000  0.66666667  0.32711519  1.0
  V  V219  1  0.33333333  0.00000000  0.32711519  1.0
  V  V220  1  0.33333333  0.33333333  0.32711519  1.0
  V  V221  1  0.33333333  0.66666667  0.32711519  1.0
  V  V222  1  0.66666667  0.00000000  0.32711519  1.0
  V  V223  1  0.66666667  0.33333333  0.32711519  1.0
  V  V224  1  0.66666667  0.66666667  0.32711519  1.0
  Ni  Ni225  1  0.22263000  0.33333333  0.30251444  1.0
  Ni  Ni226  1  0.22263000  0.66666667  0.30251444  1.0
  Ni  Ni227  1  0.22263000  1.00000000  0.30251444  1.0
  Ni  Ni228  1  0.55596333  0.33333333  0.30251444  1.0
  Ni  Ni229  1  0.55596333  0.66666667  0.30251444  1.0
  Ni  Ni230  1  0.55596333  1.00000000  0.30251444  1.0
  Ni  Ni231  1  0.88929667  0.33333333  0.30251444  1.0
  Ni  Ni232  1  0.88929667  0.66666667  0.30251444  1.0
  Ni  Ni233  1  0.88929667  1.00000000  0.30251444  1.0
  Ni  Ni234  1  0.11070333  0.33333333  0.31467889  1.0
  Ni  Ni235  1  0.11070333  0.66666667  0.31467889  1.0
  Ni  Ni236  1  0.11070333  1.00000000  0.31467889  1.0
  Ni  Ni237  1  0.44403667  0.33333333  0.31467889  1.0
  Ni  Ni238  1  0.44403667  0.66666667  0.31467889  1.0
  Ni  Ni239  1  0.44403667  1.00000000  0.31467889  1.0
  Ni  Ni240  1  0.77737000  0.33333333  0.31467889  1.0
  Ni  Ni241  1  0.77737000  0.66666667  0.31467889  1.0
  Ni  Ni242  1  0.77737000  1.00000000  0.31467889  1.0
  V  V243  1  0.00000000  0.00000000  0.36415222  1.0
  V  V244  1  0.00000000  0.33333333  0.36415222  1.0
  V  V245  1  0.00000000  0.66666667  0.36415222  1.0
  V  V246  1  0.33333333  0.00000000  0.36415222  1.0
  V  V247  1  0.33333333  0.33333333  0.36415222  1.0
  V  V248  1  0.33333333  0.66666667  0.36415222  1.0
  V  V249  1  0.66666667  0.00000000  0.36415222  1.0
  V  V250  1  0.66666667  0.33333333  0.36415222  1.0
  V  V251  1  0.66666667  0.66666667  0.36415222  1.0
  Ni  Ni252  1  0.22263000  0.33333333  0.33955148  1.0
  Ni  Ni253  1  0.22263000  0.66666667  0.33955148  1.0
  Ni  Ni254  1  0.22263000  1.00000000  0.33955148  1.0
  Ni  Ni255  1  0.55596333  0.33333333  0.33955148  1.0
  Ni  Ni256  1  0.55596333  0.66666667  0.33955148  1.0
  Ni  Ni257  1  0.55596333  1.00000000  0.33955148  1.0
  Ni  Ni258  1  0.88929667  0.33333333  0.33955148  1.0
  Ni  Ni259  1  0.88929667  0.66666667  0.33955148  1.0
  Ni  Ni260  1  0.88929667  1.00000000  0.33955148  1.0
  Ni  Ni261  1  0.11070333  0.33333333  0.35171593  1.0
  Ni  Ni262  1  0.11070333  0.66666667  0.35171593  1.0
  Ni  Ni263  1  0.11070333  1.00000000  0.35171593  1.0
  Ni  Ni264  1  0.44403667  0.33333333  0.35171593  1.0
  Ni  Ni265  1  0.44403667  0.66666667  0.35171593  1.0
  Ni  Ni266  1  0.44403667  1.00000000  0.35171593  1.0
  Ni  Ni267  1  0.77737000  0.33333333  0.35171593  1.0
  Ni  Ni268  1  0.77737000  0.66666667  0.35171593  1.0
  Ni  Ni269  1  0.77737000  1.00000000  0.35171593  1.0
  V  V270  1  0.00000000  0.00000000  0.40118926  1.0
  V  V271  1  0.00000000  0.33333333  0.40118926  1.0
  V  V272  1  0.00000000  0.66666667  0.40118926  1.0
  V  V273  1  0.33333333  0.00000000  0.40118926  1.0
  V  V274  1  0.33333333  0.33333333  0.40118926  1.0
  V  V275  1  0.33333333  0.66666667  0.40118926  1.0
  V  V276  1  0.66666667  0.00000000  0.40118926  1.0
  V  V277  1  0.66666667  0.33333333  0.40118926  1.0
  V  V278  1  0.66666667  0.66666667  0.40118926  1.0
  Ni  Ni279  1  0.22263000  0.33333333  0.37658852  1.0
  Ni  Ni280  1  0.22263000  0.66666667  0.37658852  1.0
  Ni  Ni281  1  0.22263000  1.00000000  0.37658852  1.0
  Ni  Ni282  1  0.55596333  0.33333333  0.37658852  1.0
  Ni  Ni283  1  0.55596333  0.66666667  0.37658852  1.0
  Ni  Ni284  1  0.55596333  1.00000000  0.37658852  1.0
  Ni  Ni285  1  0.88929667  0.33333333  0.37658852  1.0
  Ni  Ni286  1  0.88929667  0.66666667  0.37658852  1.0
  Ni  Ni287  1  0.88929667  1.00000000  0.37658852  1.0
  Ni  Ni288  1  0.11070333  0.33333333  0.38875296  1.0
  Ni  Ni289  1  0.11070333  0.66666667  0.38875296  1.0
  Ni  Ni290  1  0.11070333  1.00000000  0.38875296  1.0
  Ni  Ni291  1  0.44403667  0.33333333  0.38875296  1.0
  Ni  Ni292  1  0.44403667  0.66666667  0.38875296  1.0
  Ni  Ni293  1  0.44403667  1.00000000  0.38875296  1.0
  Ni  Ni294  1  0.77737000  0.33333333  0.38875296  1.0
  Ni  Ni295  1  0.77737000  0.66666667  0.38875296  1.0
  Ni  Ni296  1  0.77737000  1.00000000  0.38875296  1.0
