# generated using pymatgen
data_VNi2
_symmetry_space_group_name_H-M   'P 1'
_cell_length_a   7.56453000
_cell_length_b   34.79402563
_cell_length_c   28.60409601
_cell_angle_alpha   98.86711731
_cell_angle_beta   89.99999999
_cell_angle_gamma   96.24063749
_symmetry_Int_Tables_number   1
_chemical_formula_structural   VNi2
_chemical_formula_sum   'V90 Ni180'
_cell_volume   7393.47610419
_cell_formula_units_Z   90
loop_
 _symmetry_equiv_pos_site_id
 _symmetry_equiv_pos_as_xyz
  1  'x, y, z'
loop_
 _atom_site_type_symbol
 _atom_site_label
 _atom_site_symmetry_multiplicity
 _atom_site_fract_x
 _atom_site_fract_y
 _atom_site_fract_z
 _atom_site_occupancy
  Ni  Ni0  1  0.31488278  0.26875639  0.99308104  1.0
  Ni  Ni1  1  0.31488278  0.60208972  0.99308104  1.0
  Ni  Ni2  1  0.31488278  0.93542306  0.99308104  1.0
  Ni  Ni3  1  0.64821611  0.26875639  0.99308104  1.0
  Ni  Ni4  1  0.64821611  0.60208972  0.99308104  1.0
  Ni  Ni5  1  0.64821611  0.93542306  0.99308104  1.0
  Ni  Ni6  1  0.98154944  0.26875639  0.99308104  1.0
  Ni  Ni7  1  0.98154944  0.60208972  0.99308104  1.0
  Ni  Ni8  1  0.98154944  0.93542306  0.99308104  1.0
  Ni  Ni9  1  0.20377167  0.04653417  0.95141438  1.0
  Ni  Ni10  1  0.20377167  0.37986750  0.95141438  1.0
  Ni  Ni11  1  0.20377167  0.71320083  0.95141438  1.0
  Ni  Ni12  1  0.53710500  0.04653417  0.95141437  1.0
  Ni  Ni13  1  0.53710500  0.37986750  0.95141438  1.0
  Ni  Ni14  1  0.53710500  0.71320083  0.95141438  1.0
  Ni  Ni15  1  0.87043833  0.04653417  0.95141438  1.0
  Ni  Ni16  1  0.87043833  0.37986750  0.95141437  1.0
  Ni  Ni17  1  0.87043833  0.71320083  0.95141438  1.0
  Ni  Ni18  1  0.27757389  0.19413861  0.97909021  1.0
  Ni  Ni19  1  0.27757389  0.52747194  0.97909021  1.0
  Ni  Ni20  1  0.27757389  0.86080528  0.97909021  1.0
  Ni  Ni21  1  0.61090722  0.19413861  0.97909021  1.0
  Ni  Ni22  1  0.61090722  0.52747194  0.97909021  1.0
  Ni  Ni23  1  0.61090722  0.86080528  0.97909021  1.0
  Ni  Ni24  1  0.94424056  0.19413861  0.97909021  1.0
  Ni  Ni25  1  0.94424056  0.52747194  0.97909021  1.0
  Ni  Ni26  1  0.94424056  0.86080528  0.97909021  1.0
  Ni  Ni27  1  0.16646278  0.30524972  0.93742354  1.0
  Ni  Ni28  1  0.16646278  0.63858306  0.93742354  1.0
  Ni  Ni29  1  0.16646278  0.97191639  0.93742354  1.0
  Ni  Ni30  1  0.49979611  0.30524972  0.93742354  1.0
  Ni  Ni31  1  0.49979611  0.63858306  0.93742354  1.0
  Ni  Ni32  1  0.49979611  0.97191639  0.93742354  1.0
  Ni  Ni33  1  0.83312944  0.30524972  0.93742354  1.0
  Ni  Ni34  1  0.83312944  0.63858306  0.93742354  1.0
  Ni  Ni35  1  0.83312944  0.97191639  0.93742354  1.0
  Ni  Ni36  1  0.09266056  0.15764528  0.90974771  1.0
  Ni  Ni37  1  0.09266056  0.49097861  0.90974771  1.0
  Ni  Ni38  1  0.09266056  0.82431194  0.90974771  1.0
  Ni  Ni39  1  0.42599389  0.15764528  0.90974771  1.0
  Ni  Ni40  1  0.42599389  0.49097861  0.90974771  1.0
  Ni  Ni41  1  0.42599389  0.82431194  0.90974771  1.0
  Ni  Ni42  1  0.75932722  0.15764528  0.90974771  1.0
  Ni  Ni43  1  0.75932722  0.49097861  0.90974771  1.0
  Ni  Ni44  1  0.75932722  0.82431194  0.90974771  1.0
  Ni  Ni45  1  0.31488278  0.26875639  0.86808104  1.0
  Ni  Ni46  1  0.31488278  0.60208972  0.86808104  1.0
  Ni  Ni47  1  0.31488278  0.93542306  0.86808104  1.0
  Ni  Ni48  1  0.64821611  0.26875639  0.86808104  1.0
  Ni  Ni49  1  0.64821611  0.60208972  0.86808104  1.0
  Ni  Ni50  1  0.64821611  0.93542306  0.86808104  1.0
  Ni  Ni51  1  0.98154944  0.26875639  0.86808104  1.0
  Ni  Ni52  1  0.98154944  0.60208972  0.86808104  1.0
  Ni  Ni53  1  0.98154944  0.93542306  0.86808104  1.0
  Ni  Ni54  1  0.05535167  0.08302750  0.89575687  1.0
  Ni  Ni55  1  0.05535167  0.41636083  0.89575687  1.0
  Ni  Ni56  1  0.05535167  0.74969417  0.89575687  1.0
  Ni  Ni57  1  0.38868500  0.08302750  0.89575687  1.0
  Ni  Ni58  1  0.38868500  0.41636083  0.89575687  1.0
  Ni  Ni59  1  0.38868500  0.74969417  0.89575688  1.0
  Ni  Ni60  1  0.72201833  0.08302750  0.89575687  1.0
  Ni  Ni61  1  0.72201833  0.41636083  0.89575687  1.0
  Ni  Ni62  1  0.72201833  0.74969417  0.89575687  1.0
  Ni  Ni63  1  0.27757389  0.19413861  0.85409021  1.0
  Ni  Ni64  1  0.27757389  0.52747194  0.85409021  1.0
  Ni  Ni65  1  0.27757389  0.86080528  0.85409021  1.0
  Ni  Ni66  1  0.61090722  0.19413861  0.85409021  1.0
  Ni  Ni67  1  0.61090722  0.52747194  0.85409021  1.0
  Ni  Ni68  1  0.61090722  0.86080528  0.85409021  1.0
  Ni  Ni69  1  0.94424056  0.19413861  0.85409021  1.0
  Ni  Ni70  1  0.94424056  0.52747194  0.85409021  1.0
  Ni  Ni71  1  0.94424056  0.86080528  0.85409021  1.0
  Ni  Ni72  1  0.20377167  0.04653417  0.82641437  1.0
  Ni  Ni73  1  0.20377167  0.37986750  0.82641437  1.0
  Ni  Ni74  1  0.20377167  0.71320083  0.82641437  1.0
  Ni  Ni75  1  0.53710500  0.04653417  0.82641437  1.0
  Ni  Ni76  1  0.53710500  0.37986750  0.82641437  1.0
  Ni  Ni77  1  0.53710500  0.71320083  0.82641437  1.0
  Ni  Ni78  1  0.87043833  0.04653417  0.82641437  1.0
  Ni  Ni79  1  0.87043833  0.37986750  0.82641437  1.0
  Ni  Ni80  1  0.87043833  0.71320083  0.82641437  1.0
  Ni  Ni81  1  0.09266056  0.15764528  0.78474771  1.0
  Ni  Ni82  1  0.09266056  0.49097861  0.78474771  1.0
  Ni  Ni83  1  0.09266056  0.82431194  0.78474771  1.0
  Ni  Ni84  1  0.42599389  0.15764528  0.78474771  1.0
  Ni  Ni85  1  0.42599389  0.49097861  0.78474771  1.0
  Ni  Ni86  1  0.42599389  0.82431194  0.78474771  1.0
  Ni  Ni87  1  0.75932722  0.15764528  0.78474771  1.0
  Ni  Ni88  1  0.75932722  0.49097861  0.78474771  1.0
  Ni  Ni89  1  0.75932722  0.82431194  0.78474771  1.0
  Ni  Ni90  1  0.16646278  0.30524972  0.81242354  1.0
  Ni  Ni91  1  0.16646278  0.63858306  0.81242354  1.0
  Ni  Ni92  1  0.16646278  0.97191639  0.81242354  1.0
  Ni  Ni93  1  0.49979611  0.30524972  0.81242354  1.0
  Ni  Ni94  1  0.49979611  0.63858306  0.81242354  1.0
  Ni  Ni95  1  0.49979611  0.97191639  0.81242354  1.0
  Ni  Ni96  1  0.83312944  0.30524972  0.81242354  1.0
  Ni  Ni97  1  0.83312944  0.63858306  0.81242354  1.0
  Ni  Ni98  1  0.83312944  0.97191639  0.81242354  1.0
  Ni  Ni99  1  0.05535167  0.08302750  0.77075687  1.0
  Ni  Ni100  1  0.05535167  0.41636083  0.77075687  1.0
  Ni  Ni101  1  0.05535167  0.74969417  0.77075687  1.0
  Ni  Ni102  1  0.38868500  0.08302750  0.77075687  1.0
  Ni  Ni103  1  0.38868500  0.41636083  0.77075687  1.0
  Ni  Ni104  1  0.38868500  0.74969417  0.77075688  1.0
  Ni  Ni105  1  0.72201833  0.08302750  0.77075687  1.0
  Ni  Ni106  1  0.72201833  0.41636083  0.77075687  1.0
  Ni  Ni107  1  0.72201833  0.74969417  0.77075687  1.0
  Ni  Ni108  1  0.31488278  0.26875639  0.74308104  1.0
  Ni  Ni109  1  0.31488278  0.60208972  0.74308104  1.0
  Ni  Ni110  1  0.31488278  0.93542306  0.74308104  1.0
  Ni  Ni111  1  0.64821611  0.26875639  0.74308104  1.0
  Ni  Ni112  1  0.64821611  0.60208972  0.74308104  1.0
  Ni  Ni113  1  0.64821611  0.93542306  0.74308104  1.0
  Ni  Ni114  1  0.98154944  0.26875639  0.74308104  1.0
  Ni  Ni115  1  0.98154944  0.60208972  0.74308104  1.0
  Ni  Ni116  1  0.98154944  0.93542306  0.74308104  1.0
  Ni  Ni117  1  0.20377167  0.04653417  0.70141437  1.0
  Ni  Ni118  1  0.20377167  0.37986750  0.70141437  1.0
  Ni  Ni119  1  0.20377167  0.71320083  0.70141438  1.0
  Ni  Ni120  1  0.53710500  0.04653417  0.70141437  1.0
  Ni  Ni121  1  0.53710500  0.37986750  0.70141437  1.0
  Ni  Ni122  1  0.53710500  0.71320083  0.70141437  1.0
  Ni  Ni123  1  0.87043833  0.04653417  0.70141437  1.0
  Ni  Ni124  1  0.87043833  0.37986750  0.70141437  1.0
  Ni  Ni125  1  0.87043833  0.71320083  0.70141437  1.0
  Ni  Ni126  1  0.27757389  0.19413861  0.72909021  1.0
  Ni  Ni127  1  0.27757389  0.52747194  0.72909021  1.0
  Ni  Ni128  1  0.27757389  0.86080528  0.72909021  1.0
  Ni  Ni129  1  0.61090722  0.19413861  0.72909021  1.0
  Ni  Ni130  1  0.61090722  0.52747194  0.72909021  1.0
  Ni  Ni131  1  0.61090722  0.86080528  0.72909021  1.0
  Ni  Ni132  1  0.94424056  0.19413861  0.72909021  1.0
  Ni  Ni133  1  0.94424056  0.52747194  0.72909021  1.0
  Ni  Ni134  1  0.94424056  0.86080528  0.72909021  1.0
  Ni  Ni135  1  0.16646278  0.30524972  0.68742354  1.0
  Ni  Ni136  1  0.16646278  0.63858306  0.68742354  1.0
  Ni  Ni137  1  0.16646278  0.97191639  0.68742354  1.0
  Ni  Ni138  1  0.49979611  0.30524972  0.68742354  1.0
  Ni  Ni139  1  0.49979611  0.63858306  0.68742354  1.0
  Ni  Ni140  1  0.49979611  0.97191639  0.68742354  1.0
  Ni  Ni141  1  0.83312944  0.30524972  0.68742354  1.0
  Ni  Ni142  1  0.83312944  0.63858306  0.68742354  1.0
  Ni  Ni143  1  0.83312944  0.97191639  0.68742354  1.0
  Ni  Ni144  1  0.09266056  0.15764528  0.65974771  1.0
  Ni  Ni145  1  0.09266056  0.49097861  0.65974771  1.0
  Ni  Ni146  1  0.09266056  0.82431194  0.65974771  1.0
  Ni  Ni147  1  0.42599389  0.15764528  0.65974771  1.0
  Ni  Ni148  1  0.42599389  0.49097861  0.65974771  1.0
  Ni  Ni149  1  0.42599389  0.82431194  0.65974771  1.0
  Ni  Ni150  1  0.75932722  0.15764528  0.65974771  1.0
  Ni  Ni151  1  0.75932722  0.49097861  0.65974771  1.0
  Ni  Ni152  1  0.75932722  0.82431194  0.65974771  1.0
  Ni  Ni153  1  0.31488278  0.26875639  0.61808104  1.0
  Ni  Ni154  1  0.31488278  0.60208972  0.61808104  1.0
  Ni  Ni155  1  0.31488278  0.93542306  0.61808104  1.0
  Ni  Ni156  1  0.64821611  0.26875639  0.61808104  1.0
  Ni  Ni157  1  0.64821611  0.60208972  0.61808104  1.0
  Ni  Ni158  1  0.64821611  0.93542306  0.61808104  1.0
  Ni  Ni159  1  0.98154944  0.26875639  0.61808104  1.0
  Ni  Ni160  1  0.98154944  0.60208972  0.61808104  1.0
  Ni  Ni161  1  0.98154944  0.93542306  0.61808104  1.0
  Ni  Ni162  1  0.05535167  0.08302750  0.64575688  1.0
  Ni  Ni163  1  0.05535167  0.41636083  0.64575688  1.0
  Ni  Ni164  1  0.05535167  0.74969417  0.64575687  1.0
  Ni  Ni165  1  0.38868500  0.08302750  0.64575687  1.0
  Ni  Ni166  1  0.38868500  0.41636083  0.64575688  1.0
  Ni  Ni167  1  0.38868500  0.74969417  0.64575688  1.0
  Ni  Ni168  1  0.72201833  0.08302750  0.64575687  1.0
  Ni  Ni169  1  0.72201833  0.41636083  0.64575687  1.0
  Ni  Ni170  1  0.72201833  0.74969417  0.64575688  1.0
  Ni  Ni171  1  0.27757389  0.19413861  0.60409021  1.0
  Ni  Ni172  1  0.27757389  0.52747194  0.60409021  1.0
  Ni  Ni173  1  0.27757389  0.86080528  0.60409021  1.0
  Ni  Ni174  1  0.61090722  0.19413861  0.60409021  1.0
  Ni  Ni175  1  0.61090722  0.52747194  0.60409021  1.0
  Ni  Ni176  1  0.61090722  0.86080528  0.60409021  1.0
  Ni  Ni177  1  0.94424056  0.19413861  0.60409021  1.0
  Ni  Ni178  1  0.94424056  0.52747194  0.60409021  1.0
  Ni  Ni179  1  0.94424056  0.86080528  0.60409021  1.0
  V  V180  1  0.24067278  0.12033639  0.96525229  1.0
  V  V181  1  0.24067278  0.45366972  0.96525229  1.0
  V  V182  1  0.24067278  0.78700306  0.96525229  1.0
  V  V183  1  0.57400611  0.12033639  0.96525229  1.0
  V  V184  1  0.57400611  0.45366972  0.96525229  1.0
  V  V185  1  0.57400611  0.78700306  0.96525229  1.0
  V  V186  1  0.90733944  0.12033639  0.96525229  1.0
  V  V187  1  0.90733944  0.45366972  0.96525229  1.0
  V  V188  1  0.90733944  0.78700306  0.96525229  1.0
  V  V189  1  0.12956167  0.23144750  0.92358562  1.0
  V  V190  1  0.12956167  0.56478083  0.92358562  1.0
  V  V191  1  0.12956167  0.89811417  0.92358562  1.0
  V  V192  1  0.46289500  0.23144750  0.92358562  1.0
  V  V193  1  0.46289500  0.56478083  0.92358562  1.0
  V  V194  1  0.46289500  0.89811417  0.92358562  1.0
  V  V195  1  0.79622833  0.23144750  0.92358562  1.0
  V  V196  1  0.79622833  0.56478083  0.92358562  1.0
  V  V197  1  0.79622833  0.89811417  0.92358562  1.0
  V  V198  1  0.01845056  0.00922528  0.88191896  1.0
  V  V199  1  0.01845056  0.34255861  0.88191896  1.0
  V  V200  1  0.01845056  0.67589194  0.88191896  1.0
  V  V201  1  0.35178389  0.00922528  0.88191896  1.0
  V  V202  1  0.35178389  0.34255861  0.88191896  1.0
  V  V203  1  0.35178389  0.67589194  0.88191896  1.0
  V  V204  1  0.68511722  0.00922528  0.88191896  1.0
  V  V205  1  0.68511722  0.34255861  0.88191896  1.0
  V  V206  1  0.68511722  0.67589194  0.88191896  1.0
  V  V207  1  0.24067278  0.12033639  0.84025229  1.0
  V  V208  1  0.24067278  0.45366972  0.84025229  1.0
  V  V209  1  0.24067278  0.78700306  0.84025229  1.0
  V  V210  1  0.57400611  0.12033639  0.84025229  1.0
  V  V211  1  0.57400611  0.45366972  0.84025229  1.0
  V  V212  1  0.57400611  0.78700306  0.84025229  1.0
  V  V213  1  0.90733944  0.12033639  0.84025229  1.0
  V  V214  1  0.90733944  0.45366972  0.84025229  1.0
  V  V215  1  0.90733944  0.78700306  0.84025229  1.0
  V  V216  1  0.12956167  0.23144750  0.79858562  1.0
  V  V217  1  0.12956167  0.56478083  0.79858562  1.0
  V  V218  1  0.12956167  0.89811417  0.79858562  1.0
  V  V219  1  0.46289500  0.23144750  0.79858562  1.0
  V  V220  1  0.46289500  0.56478083  0.79858562  1.0
  V  V221  1  0.46289500  0.89811417  0.79858562  1.0
  V  V222  1  0.79622833  0.23144750  0.79858562  1.0
  V  V223  1  0.79622833  0.56478083  0.79858562  1.0
  V  V224  1  0.79622833  0.89811417  0.79858562  1.0
  V  V225  1  0.01845056  0.00922528  0.75691896  1.0
  V  V226  1  0.01845056  0.34255861  0.75691896  1.0
  V  V227  1  0.01845056  0.67589194  0.75691896  1.0
  V  V228  1  0.35178389  0.00922528  0.75691896  1.0
  V  V229  1  0.35178389  0.34255861  0.75691896  1.0
  V  V230  1  0.35178389  0.67589194  0.75691896  1.0
  V  V231  1  0.68511722  0.00922528  0.75691896  1.0
  V  V232  1  0.68511722  0.34255861  0.75691896  1.0
  V  V233  1  0.68511722  0.67589194  0.75691896  1.0
  V  V234  1  0.24067278  0.12033639  0.71525229  1.0
  V  V235  1  0.24067278  0.45366972  0.71525229  1.0
  V  V236  1  0.24067278  0.78700306  0.71525229  1.0
  V  V237  1  0.57400611  0.12033639  0.71525229  1.0
  V  V238  1  0.57400611  0.45366972  0.71525229  1.0
  V  V239  1  0.57400611  0.78700306  0.71525229  1.0
  V  V240  1  0.90733944  0.12033639  0.71525229  1.0
  V  V241  1  0.90733944  0.45366972  0.71525229  1.0
  V  V242  1  0.90733944  0.78700306  0.71525229  1.0
  V  V243  1  0.12956167  0.23144750  0.67358562  1.0
  V  V244  1  0.12956167  0.56478083  0.67358562  1.0
  V  V245  1  0.12956167  0.89811417  0.67358562  1.0
  V  V246  1  0.46289500  0.23144750  0.67358562  1.0
  V  V247  1  0.46289500  0.56478083  0.67358562  1.0
  V  V248  1  0.46289500  0.89811417  0.67358562  1.0
  V  V249  1  0.79622833  0.23144750  0.67358562  1.0
  V  V250  1  0.79622833  0.56478083  0.67358562  1.0
  V  V251  1  0.79622833  0.89811417  0.67358562  1.0
  V  V252  1  0.01845056  0.00922528  0.63191896  1.0
  V  V253  1  0.01845056  0.34255861  0.63191896  1.0
  V  V254  1  0.01845056  0.67589194  0.63191896  1.0
  V  V255  1  0.35178389  0.00922528  0.63191896  1.0
  V  V256  1  0.35178389  0.34255861  0.63191896  1.0
  V  V257  1  0.35178389  0.67589194  0.63191896  1.0
  V  V258  1  0.68511722  0.00922528  0.63191896  1.0
  V  V259  1  0.68511722  0.34255861  0.63191896  1.0
  V  V260  1  0.68511722  0.67589194  0.63191896  1.0
  V  V261  1  0.24067278  0.12033639  0.59025229  1.0
  V  V262  1  0.24067278  0.45366972  0.59025229  1.0
  V  V263  1  0.24067278  0.78700306  0.59025229  1.0
  V  V264  1  0.57400611  0.12033639  0.59025229  1.0
  V  V265  1  0.57400611  0.45366972  0.59025229  1.0
  V  V266  1  0.57400611  0.78700306  0.59025229  1.0
  V  V267  1  0.90733944  0.12033639  0.59025229  1.0
  V  V268  1  0.90733944  0.45366972  0.59025229  1.0
  V  V269  1  0.90733944  0.78700306  0.59025229  1.0
