# generated using pymatgen
data_VNi2
_symmetry_space_group_name_H-M   'P 1'
_cell_length_a   16.94823377
_cell_length_b   22.74554412
_cell_length_c   28.00315970
_cell_angle_alpha   87.50501856
_cell_angle_beta   84.37481929
_cell_angle_gamma   77.21383539
_symmetry_Int_Tables_number   1
_chemical_formula_structural   VNi2
_chemical_formula_sum   'V126 Ni252'
_cell_volume   10474.09114761
_cell_formula_units_Z   126
loop_
 _symmetry_equiv_pos_site_id
 _symmetry_equiv_pos_as_xyz
  1  'x, y, z'
loop_
 _atom_site_type_symbol
 _atom_site_label
 _atom_site_symmetry_multiplicity
 _atom_site_fract_x
 _atom_site_fract_y
 _atom_site_fract_z
 _atom_site_occupancy
  Ni  Ni0  1  0.19211196  0.19246265  0.95566647  1.0
  Ni  Ni1  1  0.19211196  0.52579598  0.95566647  1.0
  Ni  Ni2  1  0.19211196  0.85912931  0.95566647  1.0
  Ni  Ni3  1  0.52544529  0.19246265  0.95566647  1.0
  Ni  Ni4  1  0.52544529  0.52579598  0.95566647  1.0
  Ni  Ni5  1  0.52544529  0.85912931  0.95566647  1.0
  Ni  Ni6  1  0.85877863  0.19246265  0.95566647  1.0
  Ni  Ni7  1  0.85877863  0.52579598  0.95566647  1.0
  Ni  Ni8  1  0.85877863  0.85912931  0.95566647  1.0
  Ni  Ni9  1  0.06466098  0.04540382  0.98507824  1.0
  Ni  Ni10  1  0.06466098  0.37873716  0.98507824  1.0
  Ni  Ni11  1  0.06466098  0.71207049  0.98507824  1.0
  Ni  Ni12  1  0.39799431  0.04540382  0.98507824  1.0
  Ni  Ni13  1  0.39799431  0.37873716  0.98507824  1.0
  Ni  Ni14  1  0.39799431  0.71207049  0.98507824  1.0
  Ni  Ni15  1  0.73132765  0.04540382  0.98507824  1.0
  Ni  Ni16  1  0.73132765  0.37873716  0.98507824  1.0
  Ni  Ni17  1  0.73132765  0.71207049  0.98507824  1.0
  Ni  Ni18  1  0.06372549  0.26817775  0.98529412  1.0
  Ni  Ni19  1  0.06372549  0.60151108  0.98529412  1.0
  Ni  Ni20  1  0.06372549  0.93484441  0.98529412  1.0
  Ni  Ni21  1  0.39705882  0.26817775  0.98529412  1.0
  Ni  Ni22  1  0.39705882  0.60151108  0.98529412  1.0
  Ni  Ni23  1  0.39705882  0.93484441  0.98529412  1.0
  Ni  Ni24  1  0.73039216  0.26817775  0.98529412  1.0
  Ni  Ni25  1  0.73039216  0.60151108  0.98529412  1.0
  Ni  Ni26  1  0.73039216  0.93484441  0.98529412  1.0
  Ni  Ni27  1  0.19117647  0.08190324  0.95588235  1.0
  Ni  Ni28  1  0.19117647  0.41523657  0.95588235  1.0
  Ni  Ni29  1  0.19117647  0.74856990  0.95588235  1.0
  Ni  Ni30  1  0.52450980  0.08190324  0.95588235  1.0
  Ni  Ni31  1  0.52450980  0.41523657  0.95588235  1.0
  Ni  Ni32  1  0.52450980  0.74856990  0.95588235  1.0
  Ni  Ni33  1  0.85784314  0.08190324  0.95588235  1.0
  Ni  Ni34  1  0.85784314  0.41523657  0.95588235  1.0
  Ni  Ni35  1  0.85784314  0.74856990  0.95588235  1.0
  Ni  Ni36  1  0.11368059  0.15324696  0.89684294  1.0
  Ni  Ni37  1  0.11368059  0.48658029  0.89684294  1.0
  Ni  Ni38  1  0.11368059  0.81991363  0.89684294  1.0
  Ni  Ni39  1  0.44701392  0.15324696  0.89684294  1.0
  Ni  Ni40  1  0.44701392  0.48658029  0.89684294  1.0
  Ni  Ni41  1  0.44701392  0.81991363  0.89684294  1.0
  Ni  Ni42  1  0.78034725  0.15324696  0.89684294  1.0
  Ni  Ni43  1  0.78034725  0.48658029  0.89684294  1.0
  Ni  Ni44  1  0.78034725  0.81991363  0.89684294  1.0
  Ni  Ni45  1  0.31956294  0.00618814  0.92625471  1.0
  Ni  Ni46  1  0.31956294  0.33952147  0.92625471  1.0
  Ni  Ni47  1  0.31956294  0.67285480  0.92625471  1.0
  Ni  Ni48  1  0.65289627  0.00618814  0.92625471  1.0
  Ni  Ni49  1  0.65289627  0.33952147  0.92625471  1.0
  Ni  Ni50  1  0.65289627  0.67285480  0.92625471  1.0
  Ni  Ni51  1  0.98622961  0.00618814  0.92625471  1.0
  Ni  Ni52  1  0.98622961  0.33952147  0.92625471  1.0
  Ni  Ni53  1  0.98622961  0.67285480  0.92625471  1.0
  Ni  Ni54  1  0.31862745  0.22896206  0.92647059  1.0
  Ni  Ni55  1  0.31862745  0.56229539  0.92647059  1.0
  Ni  Ni56  1  0.31862745  0.89562873  0.92647059  1.0
  Ni  Ni57  1  0.65196078  0.22896206  0.92647059  1.0
  Ni  Ni58  1  0.65196078  0.56229539  0.92647059  1.0
  Ni  Ni59  1  0.65196078  0.89562873  0.92647059  1.0
  Ni  Ni60  1  0.98529412  0.22896206  0.92647059  1.0
  Ni  Ni61  1  0.98529412  0.56229539  0.92647059  1.0
  Ni  Ni62  1  0.98529412  0.89562873  0.92647059  1.0
  Ni  Ni63  1  0.11274510  0.04268755  0.89705882  1.0
  Ni  Ni64  1  0.11274510  0.37602088  0.89705882  1.0
  Ni  Ni65  1  0.11274510  0.70935422  0.89705882  1.0
  Ni  Ni66  1  0.44607843  0.04268755  0.89705882  1.0
  Ni  Ni67  1  0.44607843  0.37602088  0.89705882  1.0
  Ni  Ni68  1  0.44607843  0.70935422  0.89705882  1.0
  Ni  Ni69  1  0.77941176  0.04268755  0.89705882  1.0
  Ni  Ni70  1  0.77941176  0.37602088  0.89705882  1.0
  Ni  Ni71  1  0.77941176  0.70935422  0.89705882  1.0
  Ni  Ni72  1  0.03524922  0.11403127  0.83801941  1.0
  Ni  Ni73  1  0.03524922  0.44736461  0.83801941  1.0
  Ni  Ni74  1  0.03524922  0.78069794  0.83801941  1.0
  Ni  Ni75  1  0.36858255  0.11403127  0.83801941  1.0
  Ni  Ni76  1  0.36858255  0.44736461  0.83801941  1.0
  Ni  Ni77  1  0.36858255  0.78069794  0.83801941  1.0
  Ni  Ni78  1  0.70191588  0.11403127  0.83801941  1.0
  Ni  Ni79  1  0.70191588  0.44736461  0.83801941  1.0
  Ni  Ni80  1  0.70191588  0.78069794  0.83801941  1.0
  Ni  Ni81  1  0.24113157  0.30030578  0.86743118  1.0
  Ni  Ni82  1  0.24113157  0.63363912  0.86743118  1.0
  Ni  Ni83  1  0.24113157  0.96697245  0.86743118  1.0
  Ni  Ni84  1  0.57446490  0.30030578  0.86743118  1.0
  Ni  Ni85  1  0.57446490  0.63363912  0.86743118  1.0
  Ni  Ni86  1  0.57446490  0.96697245  0.86743118  1.0
  Ni  Ni87  1  0.90779824  0.30030578  0.86743118  1.0
  Ni  Ni88  1  0.90779824  0.63363912  0.86743118  1.0
  Ni  Ni89  1  0.90779824  0.96697245  0.86743118  1.0
  Ni  Ni90  1  0.24019608  0.18974637  0.86764706  1.0
  Ni  Ni91  1  0.24019608  0.52307971  0.86764706  1.0
  Ni  Ni92  1  0.24019608  0.85641304  0.86764706  1.0
  Ni  Ni93  1  0.57352941  0.18974637  0.86764706  1.0
  Ni  Ni94  1  0.57352941  0.52307971  0.86764706  1.0
  Ni  Ni95  1  0.57352941  0.85641304  0.86764706  1.0
  Ni  Ni96  1  0.90686275  0.18974637  0.86764706  1.0
  Ni  Ni97  1  0.90686275  0.52307971  0.86764706  1.0
  Ni  Ni98  1  0.90686275  0.85641304  0.86764706  1.0
  Ni  Ni99  1  0.03431373  0.00347186  0.83823529  1.0
  Ni  Ni100  1  0.03431373  0.33680520  0.83823529  1.0
  Ni  Ni101  1  0.03431373  0.67013853  0.83823529  1.0
  Ni  Ni102  1  0.36764706  0.00347186  0.83823529  1.0
  Ni  Ni103  1  0.36764706  0.33680520  0.83823529  1.0
  Ni  Ni104  1  0.36764706  0.67013853  0.83823529  1.0
  Ni  Ni105  1  0.70098039  0.00347186  0.83823529  1.0
  Ni  Ni106  1  0.70098039  0.33680520  0.83823529  1.0
  Ni  Ni107  1  0.70098039  0.67013853  0.83823529  1.0
  Ni  Ni108  1  0.29015118  0.07481559  0.77919588  1.0
  Ni  Ni109  1  0.29015118  0.40814892  0.77919588  1.0
  Ni  Ni110  1  0.29015118  0.74148225  0.77919588  1.0
  Ni  Ni111  1  0.62348451  0.07481559  0.77919588  1.0
  Ni  Ni112  1  0.62348451  0.40814892  0.77919588  1.0
  Ni  Ni113  1  0.62348451  0.74148225  0.77919588  1.0
  Ni  Ni114  1  0.95681784  0.07481559  0.77919588  1.0
  Ni  Ni115  1  0.95681784  0.40814892  0.77919588  1.0
  Ni  Ni116  1  0.95681784  0.74148225  0.77919588  1.0
  Ni  Ni117  1  0.16270020  0.26109010  0.80860765  1.0
  Ni  Ni118  1  0.16270020  0.59442343  0.80860765  1.0
  Ni  Ni119  1  0.16270020  0.92775676  0.80860765  1.0
  Ni  Ni120  1  0.49603353  0.26109010  0.80860765  1.0
  Ni  Ni121  1  0.49603353  0.59442343  0.80860765  1.0
  Ni  Ni122  1  0.49603353  0.92775676  0.80860765  1.0
  Ni  Ni123  1  0.82936686  0.26109010  0.80860765  1.0
  Ni  Ni124  1  0.82936686  0.59442343  0.80860765  1.0
  Ni  Ni125  1  0.82936686  0.92775676  0.80860765  1.0
  Ni  Ni126  1  0.16176471  0.15053069  0.80882353  1.0
  Ni  Ni127  1  0.16176471  0.48386402  0.80882353  1.0
  Ni  Ni128  1  0.16176471  0.81719735  0.80882353  1.0
  Ni  Ni129  1  0.49509804  0.15053069  0.80882353  1.0
  Ni  Ni130  1  0.49509804  0.48386402  0.80882353  1.0
  Ni  Ni131  1  0.49509804  0.81719735  0.80882353  1.0
  Ni  Ni132  1  0.82843137  0.15053069  0.80882353  1.0
  Ni  Ni133  1  0.82843137  0.48386402  0.80882353  1.0
  Ni  Ni134  1  0.82843137  0.81719735  0.80882353  1.0
  Ni  Ni135  1  0.28921569  0.29758951  0.77941176  1.0
  Ni  Ni136  1  0.28921569  0.63092284  0.77941176  1.0
  Ni  Ni137  1  0.28921569  0.96425618  0.77941176  1.0
  Ni  Ni138  1  0.62254902  0.29758951  0.77941176  1.0
  Ni  Ni139  1  0.62254902  0.63092284  0.77941176  1.0
  Ni  Ni140  1  0.62254902  0.96425618  0.77941176  1.0
  Ni  Ni141  1  0.95588235  0.29758951  0.77941176  1.0
  Ni  Ni142  1  0.95588235  0.63092284  0.77941176  1.0
  Ni  Ni143  1  0.95588235  0.96425618  0.77941176  1.0
  Ni  Ni144  1  0.21171980  0.03559990  0.72037235  1.0
  Ni  Ni145  1  0.21171980  0.36893324  0.72037235  1.0
  Ni  Ni146  1  0.21171980  0.70226657  0.72037235  1.0
  Ni  Ni147  1  0.54505314  0.03559990  0.72037235  1.0
  Ni  Ni148  1  0.54505314  0.36893324  0.72037235  1.0
  Ni  Ni149  1  0.54505314  0.70226657  0.72037235  1.0
  Ni  Ni150  1  0.87838647  0.03559990  0.72037235  1.0
  Ni  Ni151  1  0.87838647  0.36893324  0.72037235  1.0
  Ni  Ni152  1  0.87838647  0.70226657  0.72037235  1.0
  Ni  Ni153  1  0.08426882  0.22187441  0.74978412  1.0
  Ni  Ni154  1  0.08426882  0.55520775  0.74978412  1.0
  Ni  Ni155  1  0.08426882  0.88854108  0.74978412  1.0
  Ni  Ni156  1  0.41760216  0.22187441  0.74978412  1.0
  Ni  Ni157  1  0.41760216  0.55520775  0.74978412  1.0
  Ni  Ni158  1  0.41760216  0.88854108  0.74978412  1.0
  Ni  Ni159  1  0.75093549  0.22187441  0.74978412  1.0
  Ni  Ni160  1  0.75093549  0.55520775  0.74978412  1.0
  Ni  Ni161  1  0.75093549  0.88854108  0.74978412  1.0
  Ni  Ni162  1  0.08333333  0.11131500  0.75000000  1.0
  Ni  Ni163  1  0.08333333  0.44464833  0.75000000  1.0
  Ni  Ni164  1  0.08333333  0.77798167  0.75000000  1.0
  Ni  Ni165  1  0.41666667  0.11131500  0.75000000  1.0
  Ni  Ni166  1  0.41666667  0.44464833  0.75000000  1.0
  Ni  Ni167  1  0.41666667  0.77798167  0.75000000  1.0
  Ni  Ni168  1  0.75000000  0.11131500  0.75000000  1.0
  Ni  Ni169  1  0.75000000  0.44464833  0.75000000  1.0
  Ni  Ni170  1  0.75000000  0.77798167  0.75000000  1.0
  Ni  Ni171  1  0.21078431  0.25837382  0.72058824  1.0
  Ni  Ni172  1  0.21078431  0.59170716  0.72058824  1.0
  Ni  Ni173  1  0.21078431  0.92504049  0.72058824  1.0
  Ni  Ni174  1  0.54411765  0.25837382  0.72058824  1.0
  Ni  Ni175  1  0.54411765  0.59170716  0.72058824  1.0
  Ni  Ni176  1  0.54411765  0.92504049  0.72058824  1.0
  Ni  Ni177  1  0.87745098  0.25837382  0.72058824  1.0
  Ni  Ni178  1  0.87745098  0.59170716  0.72058824  1.0
  Ni  Ni179  1  0.87745098  0.92504049  0.72058824  1.0
  Ni  Ni180  1  0.13328843  0.32971755  0.66154882  1.0
  Ni  Ni181  1  0.13328843  0.66305088  0.66154882  1.0
  Ni  Ni182  1  0.13328843  0.99638422  0.66154882  1.0
  Ni  Ni183  1  0.46662176  0.32971755  0.66154882  1.0
  Ni  Ni184  1  0.46662176  0.66305088  0.66154882  1.0
  Ni  Ni185  1  0.46662176  0.99638422  0.66154882  1.0
  Ni  Ni186  1  0.79995510  0.32971755  0.66154882  1.0
  Ni  Ni187  1  0.79995510  0.66305088  0.66154882  1.0
  Ni  Ni188  1  0.79995510  0.99638422  0.66154882  1.0
  Ni  Ni189  1  0.00583745  0.18265873  0.69096059  1.0
  Ni  Ni190  1  0.00583745  0.51599206  0.69096059  1.0
  Ni  Ni191  1  0.00583745  0.84932539  0.69096059  1.0
  Ni  Ni192  1  0.33917078  0.18265873  0.69096059  1.0
  Ni  Ni193  1  0.33917078  0.51599206  0.69096059  1.0
  Ni  Ni194  1  0.33917078  0.84932539  0.69096059  1.0
  Ni  Ni195  1  0.67250412  0.18265873  0.69096059  1.0
  Ni  Ni196  1  0.67250412  0.51599206  0.69096059  1.0
  Ni  Ni197  1  0.67250412  0.84932539  0.69096059  1.0
  Ni  Ni198  1  0.00490196  0.07209931  0.69117647  1.0
  Ni  Ni199  1  0.00490196  0.40543265  0.69117647  1.0
  Ni  Ni200  1  0.00490196  0.73876598  0.69117647  1.0
  Ni  Ni201  1  0.33823529  0.07209931  0.69117647  1.0
  Ni  Ni202  1  0.33823529  0.40543265  0.69117647  1.0
  Ni  Ni203  1  0.33823529  0.73876598  0.69117647  1.0
  Ni  Ni204  1  0.67156863  0.07209931  0.69117647  1.0
  Ni  Ni205  1  0.67156863  0.40543265  0.69117647  1.0
  Ni  Ni206  1  0.67156863  0.73876598  0.69117647  1.0
  Ni  Ni207  1  0.13235294  0.21915814  0.66176471  1.0
  Ni  Ni208  1  0.13235294  0.55249147  0.66176471  1.0
  Ni  Ni209  1  0.13235294  0.88582480  0.66176471  1.0
  Ni  Ni210  1  0.46568627  0.21915814  0.66176471  1.0
  Ni  Ni211  1  0.46568627  0.55249147  0.66176471  1.0
  Ni  Ni212  1  0.46568627  0.88582480  0.66176471  1.0
  Ni  Ni213  1  0.79901961  0.21915814  0.66176471  1.0
  Ni  Ni214  1  0.79901961  0.55249147  0.66176471  1.0
  Ni  Ni215  1  0.79901961  0.88582480  0.66176471  1.0
  Ni  Ni216  1  0.05485706  0.29050186  0.60272529  1.0
  Ni  Ni217  1  0.05485706  0.62383520  0.60272529  1.0
  Ni  Ni218  1  0.05485706  0.95716853  0.60272529  1.0
  Ni  Ni219  1  0.38819039  0.29050186  0.60272529  1.0
  Ni  Ni220  1  0.38819039  0.62383520  0.60272529  1.0
  Ni  Ni221  1  0.38819039  0.95716853  0.60272529  1.0
  Ni  Ni222  1  0.72152373  0.29050186  0.60272529  1.0
  Ni  Ni223  1  0.72152373  0.62383520  0.60272529  1.0
  Ni  Ni224  1  0.72152373  0.95716853  0.60272529  1.0
  Ni  Ni225  1  0.26073941  0.14344304  0.63213706  1.0
  Ni  Ni226  1  0.26073941  0.47677637  0.63213706  1.0
  Ni  Ni227  1  0.26073941  0.81010971  0.63213706  1.0
  Ni  Ni228  1  0.59407275  0.14344304  0.63213706  1.0
  Ni  Ni229  1  0.59407275  0.47677637  0.63213706  1.0
  Ni  Ni230  1  0.59407275  0.81010971  0.63213706  1.0
  Ni  Ni231  1  0.92740608  0.14344304  0.63213706  1.0
  Ni  Ni232  1  0.92740608  0.47677637  0.63213706  1.0
  Ni  Ni233  1  0.92740608  0.81010971  0.63213706  1.0
  Ni  Ni234  1  0.25980392  0.03288363  0.63235294  1.0
  Ni  Ni235  1  0.25980392  0.36621696  0.63235294  1.0
  Ni  Ni236  1  0.25980392  0.69955029  0.63235294  1.0
  Ni  Ni237  1  0.59313725  0.03288363  0.63235294  1.0
  Ni  Ni238  1  0.59313725  0.36621696  0.63235294  1.0
  Ni  Ni239  1  0.59313725  0.69955029  0.63235294  1.0
  Ni  Ni240  1  0.92647059  0.03288363  0.63235294  1.0
  Ni  Ni241  1  0.92647059  0.36621696  0.63235294  1.0
  Ni  Ni242  1  0.92647059  0.69955029  0.63235294  1.0
  Ni  Ni243  1  0.05392157  0.17994245  0.60294118  1.0
  Ni  Ni244  1  0.05392157  0.51327578  0.60294118  1.0
  Ni  Ni245  1  0.05392157  0.84660912  0.60294118  1.0
  Ni  Ni246  1  0.38725490  0.17994245  0.60294118  1.0
  Ni  Ni247  1  0.38725490  0.51327578  0.60294118  1.0
  Ni  Ni248  1  0.38725490  0.84660912  0.60294118  1.0
  Ni  Ni249  1  0.72058824  0.17994245  0.60294118  1.0
  Ni  Ni250  1  0.72058824  0.51327578  0.60294118  1.0
  Ni  Ni251  1  0.72058824  0.84660912  0.60294118  1.0
  V  V252  1  0.19164422  0.30384961  0.95577441  1.0
  V  V253  1  0.19164422  0.63718294  0.95577441  1.0
  V  V254  1  0.19164422  0.97051627  0.95577441  1.0
  V  V255  1  0.52497755  0.30384961  0.95577441  1.0
  V  V256  1  0.52497755  0.63718294  0.95577441  1.0
  V  V257  1  0.52497755  0.97051627  0.95577441  1.0
  V  V258  1  0.85831088  0.30384961  0.95577441  1.0
  V  V259  1  0.85831088  0.63718294  0.95577441  1.0
  V  V260  1  0.85831088  0.97051627  0.95577441  1.0
  V  V261  1  0.06419324  0.15679078  0.98518618  1.0
  V  V262  1  0.06419324  0.49012412  0.98518618  1.0
  V  V263  1  0.06419324  0.82345745  0.98518618  1.0
  V  V264  1  0.39752657  0.15679078  0.98518618  1.0
  V  V265  1  0.39752657  0.49012412  0.98518618  1.0
  V  V266  1  0.39752657  0.82345745  0.98518618  1.0
  V  V267  1  0.73085990  0.15679078  0.98518618  1.0
  V  V268  1  0.73085990  0.49012412  0.98518618  1.0
  V  V269  1  0.73085990  0.82345745  0.98518618  1.0
  V  V270  1  0.11321284  0.26463392  0.89695088  1.0
  V  V271  1  0.11321284  0.59796725  0.89695088  1.0
  V  V272  1  0.11321284  0.93130059  0.89695088  1.0
  V  V273  1  0.44654618  0.26463392  0.89695088  1.0
  V  V274  1  0.44654618  0.59796725  0.89695088  1.0
  V  V275  1  0.44654618  0.93130059  0.89695088  1.0
  V  V276  1  0.77987951  0.26463392  0.89695088  1.0
  V  V277  1  0.77987951  0.59796725  0.89695088  1.0
  V  V278  1  0.77987951  0.93130059  0.89695088  1.0
  V  V279  1  0.31909520  0.11757510  0.92636265  1.0
  V  V280  1  0.31909520  0.45090843  0.92636265  1.0
  V  V281  1  0.31909520  0.78424176  0.92636265  1.0
  V  V282  1  0.65242853  0.11757510  0.92636265  1.0
  V  V283  1  0.65242853  0.45090843  0.92636265  1.0
  V  V284  1  0.65242853  0.78424176  0.92636265  1.0
  V  V285  1  0.98576186  0.11757510  0.92636265  1.0
  V  V286  1  0.98576186  0.45090843  0.92636265  1.0
  V  V287  1  0.98576186  0.78424176  0.92636265  1.0
  V  V288  1  0.03478147  0.22541824  0.83812735  1.0
  V  V289  1  0.03478147  0.55875157  0.83812735  1.0
  V  V290  1  0.03478147  0.89208490  0.83812735  1.0
  V  V291  1  0.36811480  0.22541824  0.83812735  1.0
  V  V292  1  0.36811480  0.55875157  0.83812735  1.0
  V  V293  1  0.36811480  0.89208490  0.83812735  1.0
  V  V294  1  0.70144814  0.22541824  0.83812735  1.0
  V  V295  1  0.70144814  0.55875157  0.83812735  1.0
  V  V296  1  0.70144814  0.89208490  0.83812735  1.0
  V  V297  1  0.24066382  0.07835941  0.86753912  1.0
  V  V298  1  0.24066382  0.41169275  0.86753912  1.0
  V  V299  1  0.24066382  0.74502608  0.86753912  1.0
  V  V300  1  0.57399716  0.07835941  0.86753912  1.0
  V  V301  1  0.57399716  0.41169275  0.86753912  1.0
  V  V302  1  0.57399716  0.74502608  0.86753912  1.0
  V  V303  1  0.90733049  0.07835941  0.86753912  1.0
  V  V304  1  0.90733049  0.41169275  0.86753912  1.0
  V  V305  1  0.90733049  0.74502608  0.86753912  1.0
  V  V306  1  0.28968343  0.18620255  0.77930382  1.0
  V  V307  1  0.28968343  0.51953588  0.77930382  1.0
  V  V308  1  0.28968343  0.85286922  0.77930382  1.0
  V  V309  1  0.62301676  0.18620255  0.77930382  1.0
  V  V310  1  0.62301676  0.51953588  0.77930382  1.0
  V  V311  1  0.62301676  0.85286922  0.77930382  1.0
  V  V312  1  0.95635010  0.18620255  0.77930382  1.0
  V  V313  1  0.95635010  0.51953588  0.77930382  1.0
  V  V314  1  0.95635010  0.85286922  0.77930382  1.0
  V  V315  1  0.16223245  0.03914373  0.80871559  1.0
  V  V316  1  0.16223245  0.37247706  0.80871559  1.0
  V  V317  1  0.16223245  0.70581039  0.80871559  1.0
  V  V318  1  0.49556578  0.03914373  0.80871559  1.0
  V  V319  1  0.49556578  0.37247706  0.80871559  1.0
  V  V320  1  0.49556578  0.70581039  0.80871559  1.0
  V  V321  1  0.82889912  0.03914373  0.80871559  1.0
  V  V322  1  0.82889912  0.37247706  0.80871559  1.0
  V  V323  1  0.82889912  0.70581039  0.80871559  1.0
  V  V324  1  0.21125206  0.14698686  0.72048029  1.0
  V  V325  1  0.21125206  0.48032020  0.72048029  1.0
  V  V326  1  0.21125206  0.81365353  0.72048029  1.0
  V  V327  1  0.54458539  0.14698686  0.72048029  1.0
  V  V328  1  0.54458539  0.48032020  0.72048029  1.0
  V  V329  1  0.54458539  0.81365353  0.72048029  1.0
  V  V330  1  0.87791873  0.14698686  0.72048029  1.0
  V  V331  1  0.87791873  0.48032020  0.72048029  1.0
  V  V332  1  0.87791873  0.81365353  0.72048029  1.0
  V  V333  1  0.08380108  0.33326137  0.74989206  1.0
  V  V334  1  0.08380108  0.66659471  0.74989206  1.0
  V  V335  1  0.08380108  0.99992804  0.74989206  1.0
  V  V336  1  0.41713441  0.33326137  0.74989206  1.0
  V  V337  1  0.41713441  0.66659471  0.74989206  1.0
  V  V338  1  0.41713441  0.99992804  0.74989206  1.0
  V  V339  1  0.75046775  0.33326137  0.74989206  1.0
  V  V340  1  0.75046775  0.66659471  0.74989206  1.0
  V  V341  1  0.75046775  0.99992804  0.74989206  1.0
  V  V342  1  0.13282069  0.10777118  0.66165676  1.0
  V  V343  1  0.13282069  0.44110451  0.66165676  1.0
  V  V344  1  0.13282069  0.77443784  0.66165676  1.0
  V  V345  1  0.46615402  0.10777118  0.66165676  1.0
  V  V346  1  0.46615402  0.44110451  0.66165676  1.0
  V  V347  1  0.46615402  0.77443784  0.66165676  1.0
  V  V348  1  0.79948735  0.10777118  0.66165676  1.0
  V  V349  1  0.79948735  0.44110451  0.66165676  1.0
  V  V350  1  0.79948735  0.77443784  0.66165676  1.0
  V  V351  1  0.00536971  0.29404569  0.69106853  1.0
  V  V352  1  0.00536971  0.62737902  0.69106853  1.0
  V  V353  1  0.00536971  0.96071235  0.69106853  1.0
  V  V354  1  0.33870304  0.29404569  0.69106853  1.0
  V  V355  1  0.33870304  0.62737902  0.69106853  1.0
  V  V356  1  0.33870304  0.96071235  0.69106853  1.0
  V  V357  1  0.67203637  0.29404569  0.69106853  1.0
  V  V358  1  0.67203637  0.62737902  0.69106853  1.0
  V  V359  1  0.67203637  0.96071235  0.69106853  1.0
  V  V360  1  0.05438931  0.06855549  0.60283324  1.0
  V  V361  1  0.05438931  0.40188882  0.60283324  1.0
  V  V362  1  0.05438931  0.73522216  0.60283324  1.0
  V  V363  1  0.38772265  0.06855549  0.60283324  1.0
  V  V364  1  0.38772265  0.40188882  0.60283324  1.0
  V  V365  1  0.38772265  0.73522216  0.60283324  1.0
  V  V366  1  0.72105598  0.06855549  0.60283324  1.0
  V  V367  1  0.72105598  0.40188882  0.60283324  1.0
  V  V368  1  0.72105598  0.73522216  0.60283324  1.0
  V  V369  1  0.26027167  0.25483000  0.63224500  1.0
  V  V370  1  0.26027167  0.58816333  0.63224500  1.0
  V  V371  1  0.26027167  0.92149667  0.63224500  1.0
  V  V372  1  0.59360500  0.25483000  0.63224500  1.0
  V  V373  1  0.59360500  0.58816333  0.63224500  1.0
  V  V374  1  0.59360500  0.92149667  0.63224500  1.0
  V  V375  1  0.92693833  0.25483000  0.63224500  1.0
  V  V376  1  0.92693833  0.58816333  0.63224500  1.0
  V  V377  1  0.92693833  0.92149667  0.63224500  1.0
