# generated using pymatgen
data_VNi2
_symmetry_space_group_name_H-M   'P 1'
_cell_length_a   13.14528051
_cell_length_b   22.74554412
_cell_length_c   43.81760170
_cell_angle_alpha   89.90079262
_cell_angle_beta   131.84154215
_cell_angle_gamma   125.37708130
_symmetry_Int_Tables_number   1
_chemical_formula_structural   VNi2
_chemical_formula_sum   'V72 Ni144'
_cell_volume   6161.23008683
_cell_formula_units_Z   72
loop_
 _symmetry_equiv_pos_site_id
 _symmetry_equiv_pos_as_xyz
  1  'x, y, z'
loop_
 _atom_site_type_symbol
 _atom_site_label
 _atom_site_symmetry_multiplicity
 _atom_site_fract_x
 _atom_site_fract_y
 _atom_site_fract_z
 _atom_site_occupancy
  V  V0  1  0.00000000  0.16666667  0.02481650  1.0
  V  V1  1  0.00000000  0.50000000  0.02481650  1.0
  V  V2  1  0.00000000  0.83333333  0.02481650  1.0
  V  V3  1  0.33333333  0.16666667  0.02481650  1.0
  V  V4  1  0.33333333  0.50000000  0.02481650  1.0
  V  V5  1  0.33333333  0.83333333  0.02481650  1.0
  V  V6  1  0.66666667  0.16666667  0.02481650  1.0
  V  V7  1  0.66666667  0.50000000  0.02481650  1.0
  V  V8  1  0.66666667  0.83333333  0.02481650  1.0
  V  V9  1  0.00000000  0.00000000  0.07481650  1.0
  V  V10  1  0.00000000  0.33333333  0.07481650  1.0
  V  V11  1  0.00000000  0.66666667  0.07481650  1.0
  V  V12  1  0.33333333  0.00000000  0.07481650  1.0
  V  V13  1  0.33333333  0.33333333  0.07481650  1.0
  V  V14  1  0.33333333  0.66666667  0.07481650  1.0
  V  V15  1  0.66666667  0.00000000  0.07481650  1.0
  V  V16  1  0.66666667  0.33333333  0.07481650  1.0
  V  V17  1  0.66666667  0.66666667  0.07481650  1.0
  Ni  Ni18  1  0.00000000  0.05535167  0.02463300  1.0
  Ni  Ni19  1  0.00000000  0.38868500  0.02463300  1.0
  Ni  Ni20  1  0.00000000  0.72201833  0.02463300  1.0
  Ni  Ni21  1  0.33333333  0.05535167  0.02463300  1.0
  Ni  Ni22  1  0.33333333  0.38868500  0.02463300  1.0
  Ni  Ni23  1  0.33333333  0.72201833  0.02463300  1.0
  Ni  Ni24  1  0.66666667  0.05535167  0.02463300  1.0
  Ni  Ni25  1  0.66666667  0.38868500  0.02463300  1.0
  Ni  Ni26  1  0.66666667  0.72201833  0.02463300  1.0
  Ni  Ni27  1  0.00000000  0.22201833  0.07463300  1.0
  Ni  Ni28  1  0.00000000  0.55535167  0.07463300  1.0
  Ni  Ni29  1  0.00000000  0.88868500  0.07463300  1.0
  Ni  Ni30  1  0.33333333  0.22201833  0.07463300  1.0
  Ni  Ni31  1  0.33333333  0.55535167  0.07463300  1.0
  Ni  Ni32  1  0.33333333  0.88868500  0.07463300  1.0
  Ni  Ni33  1  0.66666667  0.22201833  0.07463300  1.0
  Ni  Ni34  1  0.66666667  0.55535167  0.07463300  1.0
  Ni  Ni35  1  0.66666667  0.88868500  0.07463300  1.0
  Ni  Ni36  1  0.00000000  0.11131500  0.07500000  1.0
  Ni  Ni37  1  0.00000000  0.44464833  0.07500000  1.0
  Ni  Ni38  1  0.00000000  0.77798167  0.07500000  1.0
  Ni  Ni39  1  0.33333333  0.11131500  0.07500000  1.0
  Ni  Ni40  1  0.33333333  0.44464833  0.07500000  1.0
  Ni  Ni41  1  0.33333333  0.77798167  0.07500000  1.0
  Ni  Ni42  1  0.66666667  0.11131500  0.07500000  1.0
  Ni  Ni43  1  0.66666667  0.44464833  0.07500000  1.0
  Ni  Ni44  1  0.66666667  0.77798167  0.07500000  1.0
  Ni  Ni45  1  0.00000000  0.27798167  0.02500000  1.0
  Ni  Ni46  1  0.00000000  0.61131500  0.02500000  1.0
  Ni  Ni47  1  1.00000000  0.94464833  0.02500000  1.0
  Ni  Ni48  1  0.33333333  0.27798167  0.02500000  1.0
  Ni  Ni49  1  0.33333333  0.61131500  0.02500000  1.0
  Ni  Ni50  1  0.33333333  0.94464833  0.02500000  1.0
  Ni  Ni51  1  0.66666667  0.27798167  0.02500000  1.0
  Ni  Ni52  1  0.66666667  0.61131500  0.02500000  1.0
  Ni  Ni53  1  0.66666667  0.94464833  0.02500000  1.0
  V  V54  1  0.00000000  0.16666667  0.12481650  1.0
  V  V55  1  0.00000000  0.50000000  0.12481650  1.0
  V  V56  1  0.00000000  0.83333333  0.12481650  1.0
  V  V57  1  0.33333333  0.16666667  0.12481650  1.0
  V  V58  1  0.33333333  0.50000000  0.12481650  1.0
  V  V59  1  0.33333333  0.83333333  0.12481650  1.0
  V  V60  1  0.66666667  0.16666667  0.12481650  1.0
  V  V61  1  0.66666667  0.50000000  0.12481650  1.0
  V  V62  1  0.66666667  0.83333333  0.12481650  1.0
  V  V63  1  0.00000000  0.00000000  0.17481650  1.0
  V  V64  1  0.00000000  0.33333333  0.17481650  1.0
  V  V65  1  0.00000000  0.66666667  0.17481650  1.0
  V  V66  1  0.33333333  0.00000000  0.17481650  1.0
  V  V67  1  0.33333333  0.33333333  0.17481650  1.0
  V  V68  1  0.33333333  0.66666667  0.17481650  1.0
  V  V69  1  0.66666667  0.00000000  0.17481650  1.0
  V  V70  1  0.66666667  0.33333333  0.17481650  1.0
  V  V71  1  0.66666667  0.66666667  0.17481650  1.0
  Ni  Ni72  1  0.00000000  0.05535167  0.12463300  1.0
  Ni  Ni73  1  0.00000000  0.38868500  0.12463300  1.0
  Ni  Ni74  1  0.00000000  0.72201833  0.12463300  1.0
  Ni  Ni75  1  0.33333333  0.05535167  0.12463300  1.0
  Ni  Ni76  1  0.33333333  0.38868500  0.12463300  1.0
  Ni  Ni77  1  0.33333333  0.72201833  0.12463300  1.0
  Ni  Ni78  1  0.66666667  0.05535167  0.12463300  1.0
  Ni  Ni79  1  0.66666667  0.38868500  0.12463300  1.0
  Ni  Ni80  1  0.66666667  0.72201833  0.12463300  1.0
  Ni  Ni81  1  0.00000000  0.22201833  0.17463300  1.0
  Ni  Ni82  1  0.00000000  0.55535167  0.17463300  1.0
  Ni  Ni83  1  0.00000000  0.88868500  0.17463300  1.0
  Ni  Ni84  1  0.33333333  0.22201833  0.17463300  1.0
  Ni  Ni85  1  0.33333333  0.55535167  0.17463300  1.0
  Ni  Ni86  1  0.33333333  0.88868500  0.17463300  1.0
  Ni  Ni87  1  0.66666667  0.22201833  0.17463300  1.0
  Ni  Ni88  1  0.66666667  0.55535167  0.17463300  1.0
  Ni  Ni89  1  0.66666667  0.88868500  0.17463300  1.0
  Ni  Ni90  1  0.00000000  0.11131500  0.17500000  1.0
  Ni  Ni91  1  0.00000000  0.44464833  0.17500000  1.0
  Ni  Ni92  1  0.00000000  0.77798167  0.17500000  1.0
  Ni  Ni93  1  0.33333333  0.11131500  0.17500000  1.0
  Ni  Ni94  1  0.33333333  0.44464833  0.17500000  1.0
  Ni  Ni95  1  0.33333333  0.77798167  0.17500000  1.0
  Ni  Ni96  1  0.66666667  0.11131500  0.17500000  1.0
  Ni  Ni97  1  0.66666667  0.44464833  0.17500000  1.0
  Ni  Ni98  1  0.66666667  0.77798167  0.17500000  1.0
  Ni  Ni99  1  0.00000000  0.27798167  0.12500000  1.0
  Ni  Ni100  1  0.00000000  0.61131500  0.12500000  1.0
  Ni  Ni101  1  1.00000000  0.94464833  0.12500000  1.0
  Ni  Ni102  1  0.33333333  0.27798167  0.12500000  1.0
  Ni  Ni103  1  0.33333333  0.61131500  0.12500000  1.0
  Ni  Ni104  1  0.33333333  0.94464833  0.12500000  1.0
  Ni  Ni105  1  0.66666667  0.27798167  0.12500000  1.0
  Ni  Ni106  1  0.66666667  0.61131500  0.12500000  1.0
  Ni  Ni107  1  0.66666667  0.94464833  0.12500000  1.0
  V  V108  1  0.00000000  0.16666667  0.22481650  1.0
  V  V109  1  0.00000000  0.50000000  0.22481650  1.0
  V  V110  1  0.00000000  0.83333333  0.22481650  1.0
  V  V111  1  0.33333333  0.16666667  0.22481650  1.0
  V  V112  1  0.33333333  0.50000000  0.22481650  1.0
  V  V113  1  0.33333333  0.83333333  0.22481650  1.0
  V  V114  1  0.66666667  0.16666667  0.22481650  1.0
  V  V115  1  0.66666667  0.50000000  0.22481650  1.0
  V  V116  1  0.66666667  0.83333333  0.22481650  1.0
  V  V117  1  0.00000000  0.00000000  0.27481650  1.0
  V  V118  1  0.00000000  0.33333333  0.27481650  1.0
  V  V119  1  0.00000000  0.66666667  0.27481650  1.0
  V  V120  1  0.33333333  0.00000000  0.27481650  1.0
  V  V121  1  0.33333333  0.33333333  0.27481650  1.0
  V  V122  1  0.33333333  0.66666667  0.27481650  1.0
  V  V123  1  0.66666667  0.00000000  0.27481650  1.0
  V  V124  1  0.66666667  0.33333333  0.27481650  1.0
  V  V125  1  0.66666667  0.66666667  0.27481650  1.0
  Ni  Ni126  1  0.00000000  0.05535167  0.22463300  1.0
  Ni  Ni127  1  0.00000000  0.38868500  0.22463300  1.0
  Ni  Ni128  1  0.00000000  0.72201833  0.22463300  1.0
  Ni  Ni129  1  0.33333333  0.05535167  0.22463300  1.0
  Ni  Ni130  1  0.33333333  0.38868500  0.22463300  1.0
  Ni  Ni131  1  0.33333333  0.72201833  0.22463300  1.0
  Ni  Ni132  1  0.66666667  0.05535167  0.22463300  1.0
  Ni  Ni133  1  0.66666667  0.38868500  0.22463300  1.0
  Ni  Ni134  1  0.66666667  0.72201833  0.22463300  1.0
  Ni  Ni135  1  0.00000000  0.22201833  0.27463300  1.0
  Ni  Ni136  1  0.00000000  0.55535167  0.27463300  1.0
  Ni  Ni137  1  0.00000000  0.88868500  0.27463300  1.0
  Ni  Ni138  1  0.33333333  0.22201833  0.27463300  1.0
  Ni  Ni139  1  0.33333333  0.55535167  0.27463300  1.0
  Ni  Ni140  1  0.33333333  0.88868500  0.27463300  1.0
  Ni  Ni141  1  0.66666667  0.22201833  0.27463300  1.0
  Ni  Ni142  1  0.66666667  0.55535167  0.27463300  1.0
  Ni  Ni143  1  0.66666667  0.88868500  0.27463300  1.0
  Ni  Ni144  1  0.00000000  0.11131500  0.27500000  1.0
  Ni  Ni145  1  0.00000000  0.44464833  0.27500000  1.0
  Ni  Ni146  1  0.00000000  0.77798167  0.27500000  1.0
  Ni  Ni147  1  0.33333333  0.11131500  0.27500000  1.0
  Ni  Ni148  1  0.33333333  0.44464833  0.27500000  1.0
  Ni  Ni149  1  0.33333333  0.77798167  0.27500000  1.0
  Ni  Ni150  1  0.66666667  0.11131500  0.27500000  1.0
  Ni  Ni151  1  0.66666667  0.44464833  0.27500000  1.0
  Ni  Ni152  1  0.66666667  0.77798167  0.27500000  1.0
  Ni  Ni153  1  0.00000000  0.27798167  0.22500000  1.0
  Ni  Ni154  1  0.00000000  0.61131500  0.22500000  1.0
  Ni  Ni155  1  1.00000000  0.94464833  0.22500000  1.0
  Ni  Ni156  1  0.33333333  0.27798167  0.22500000  1.0
  Ni  Ni157  1  0.33333333  0.61131500  0.22500000  1.0
  Ni  Ni158  1  0.33333333  0.94464833  0.22500000  1.0
  Ni  Ni159  1  0.66666667  0.27798167  0.22500000  1.0
  Ni  Ni160  1  0.66666667  0.61131500  0.22500000  1.0
  Ni  Ni161  1  0.66666667  0.94464833  0.22500000  1.0
  V  V162  1  0.00000000  0.16666667  0.32481650  1.0
  V  V163  1  0.00000000  0.50000000  0.32481650  1.0
  V  V164  1  0.00000000  0.83333333  0.32481650  1.0
  V  V165  1  0.33333333  0.16666667  0.32481650  1.0
  V  V166  1  0.33333333  0.50000000  0.32481650  1.0
  V  V167  1  0.33333333  0.83333333  0.32481650  1.0
  V  V168  1  0.66666667  0.16666667  0.32481650  1.0
  V  V169  1  0.66666667  0.50000000  0.32481650  1.0
  V  V170  1  0.66666667  0.83333333  0.32481650  1.0
  V  V171  1  0.00000000  0.00000000  0.37481650  1.0
  V  V172  1  0.00000000  0.33333333  0.37481650  1.0
  V  V173  1  0.00000000  0.66666667  0.37481650  1.0
  V  V174  1  0.33333333  0.00000000  0.37481650  1.0
  V  V175  1  0.33333333  0.33333333  0.37481650  1.0
  V  V176  1  0.33333333  0.66666667  0.37481650  1.0
  V  V177  1  0.66666667  0.00000000  0.37481650  1.0
  V  V178  1  0.66666667  0.33333333  0.37481650  1.0
  V  V179  1  0.66666667  0.66666667  0.37481650  1.0
  Ni  Ni180  1  0.00000000  0.05535167  0.32463300  1.0
  Ni  Ni181  1  0.00000000  0.38868500  0.32463300  1.0
  Ni  Ni182  1  0.00000000  0.72201833  0.32463300  1.0
  Ni  Ni183  1  0.33333333  0.05535167  0.32463300  1.0
  Ni  Ni184  1  0.33333333  0.38868500  0.32463300  1.0
  Ni  Ni185  1  0.33333333  0.72201833  0.32463300  1.0
  Ni  Ni186  1  0.66666667  0.05535167  0.32463300  1.0
  Ni  Ni187  1  0.66666667  0.38868500  0.32463300  1.0
  Ni  Ni188  1  0.66666667  0.72201833  0.32463300  1.0
  Ni  Ni189  1  0.00000000  0.22201833  0.37463300  1.0
  Ni  Ni190  1  0.00000000  0.55535167  0.37463300  1.0
  Ni  Ni191  1  0.00000000  0.88868500  0.37463300  1.0
  Ni  Ni192  1  0.33333333  0.22201833  0.37463300  1.0
  Ni  Ni193  1  0.33333333  0.55535167  0.37463300  1.0
  Ni  Ni194  1  0.33333333  0.88868500  0.37463300  1.0
  Ni  Ni195  1  0.66666667  0.22201833  0.37463300  1.0
  Ni  Ni196  1  0.66666667  0.55535167  0.37463300  1.0
  Ni  Ni197  1  0.66666667  0.88868500  0.37463300  1.0
  Ni  Ni198  1  0.00000000  0.11131500  0.37500000  1.0
  Ni  Ni199  1  0.00000000  0.44464833  0.37500000  1.0
  Ni  Ni200  1  0.00000000  0.77798167  0.37500000  1.0
  Ni  Ni201  1  0.33333333  0.11131500  0.37500000  1.0
  Ni  Ni202  1  0.33333333  0.44464833  0.37500000  1.0
  Ni  Ni203  1  0.33333333  0.77798167  0.37500000  1.0
  Ni  Ni204  1  0.66666667  0.11131500  0.37500000  1.0
  Ni  Ni205  1  0.66666667  0.44464833  0.37500000  1.0
  Ni  Ni206  1  0.66666667  0.77798167  0.37500000  1.0
  Ni  Ni207  1  0.00000000  0.27798167  0.32500000  1.0
  Ni  Ni208  1  0.00000000  0.61131500  0.32500000  1.0
  Ni  Ni209  1  1.00000000  0.94464833  0.32500000  1.0
  Ni  Ni210  1  0.33333333  0.27798167  0.32500000  1.0
  Ni  Ni211  1  0.33333333  0.61131500  0.32500000  1.0
  Ni  Ni212  1  0.33333333  0.94464833  0.32500000  1.0
  Ni  Ni213  1  0.66666667  0.27798167  0.32500000  1.0
  Ni  Ni214  1  0.66666667  0.61131500  0.32500000  1.0
  Ni  Ni215  1  0.66666667  0.94464833  0.32500000  1.0
