# generated using pymatgen
data_VNi2
_symmetry_space_group_name_H-M   'P 1'
_cell_length_a   13.14528051
_cell_length_b   20.07275639
_cell_length_c   28.20083215
_cell_angle_alpha   89.95528472
_cell_angle_beta   88.61581836
_cell_angle_gamma   83.66197486
_symmetry_Int_Tables_number   1
_chemical_formula_structural   VNi2
_chemical_formula_sum   'V90 Ni180'
_cell_volume   7393.47610419
_cell_formula_units_Z   90
loop_
 _symmetry_equiv_pos_site_id
 _symmetry_equiv_pos_as_xyz
  1  'x, y, z'
loop_
 _atom_site_type_symbol
 _atom_site_label
 _atom_site_symmetry_multiplicity
 _atom_site_fract_x
 _atom_site_fract_y
 _atom_site_fract_z
 _atom_site_occupancy
  Ni  Ni0  1  0.29232931  0.11828493  0.97909021  1.0
  Ni  Ni1  1  0.29232931  0.45161826  0.97909021  1.0
  Ni  Ni2  1  0.29232931  0.78495160  0.97909021  1.0
  Ni  Ni3  1  0.62566264  0.11828493  0.97909021  1.0
  Ni  Ni4  1  0.62566264  0.45161826  0.97909021  1.0
  Ni  Ni5  1  0.62566264  0.78495160  0.97909021  1.0
  Ni  Ni6  1  0.95899597  0.11828493  0.97909021  1.0
  Ni  Ni7  1  0.95899597  0.45161826  0.97909021  1.0
  Ni  Ni8  1  0.95899597  0.78495160  0.97909021  1.0
  Ni  Ni9  1  0.09788486  0.29884049  0.93742354  1.0
  Ni  Ni10  1  0.09788486  0.63217382  0.93742354  1.0
  Ni  Ni11  1  0.09788486  0.96550715  0.93742354  1.0
  Ni  Ni12  1  0.43121819  0.29884049  0.93742354  1.0
  Ni  Ni13  1  0.43121819  0.63217382  0.93742354  1.0
  Ni  Ni14  1  0.43121819  0.96550715  0.93742354  1.0
  Ni  Ni15  1  0.76455153  0.29884049  0.93742354  1.0
  Ni  Ni16  1  0.76455153  0.63217382  0.93742354  1.0
  Ni  Ni17  1  0.76455153  0.96550715  0.93742354  1.0
  Ni  Ni18  1  0.13376653  0.05765799  0.99308104  1.0
  Ni  Ni19  1  0.13376653  0.39099132  0.99308104  1.0
  Ni  Ni20  1  0.13376653  0.72432465  0.99308104  1.0
  Ni  Ni21  1  0.46709986  0.05765799  0.99308104  1.0
  Ni  Ni22  1  0.46709986  0.39099132  0.99308104  1.0
  Ni  Ni23  1  0.46709986  0.72432465  0.99308104  1.0
  Ni  Ni24  1  0.80043319  0.05765799  0.99308104  1.0
  Ni  Ni25  1  0.80043319  0.39099132  0.99308104  1.0
  Ni  Ni26  1  0.80043319  0.72432465  0.99308104  1.0
  Ni  Ni27  1  0.27265542  0.23821354  0.95141437  1.0
  Ni  Ni28  1  0.27265542  0.57154688  0.95141437  1.0
  Ni  Ni29  1  0.27265542  0.90488021  0.95141437  1.0
  Ni  Ni30  1  0.60598875  0.23821354  0.95141438  1.0
  Ni  Ni31  1  0.60598875  0.57154688  0.95141438  1.0
  Ni  Ni32  1  0.60598875  0.90488021  0.95141437  1.0
  Ni  Ni33  1  0.93932208  0.23821354  0.95141437  1.0
  Ni  Ni34  1  0.93932208  0.57154688  0.95141437  1.0
  Ni  Ni35  1  0.93932208  0.90488021  0.95141438  1.0
  Ni  Ni36  1  0.23677375  0.14606271  0.89575687  1.0
  Ni  Ni37  1  0.23677375  0.47939604  0.89575687  1.0
  Ni  Ni38  1  0.23677375  0.81272937  0.89575687  1.0
  Ni  Ni39  1  0.57010708  0.14606271  0.89575687  1.0
  Ni  Ni40  1  0.57010708  0.47939604  0.89575687  1.0
  Ni  Ni41  1  0.57010708  0.81272937  0.89575687  1.0
  Ni  Ni42  1  0.90344042  0.14606271  0.89575687  1.0
  Ni  Ni43  1  0.90344042  0.47939604  0.89575687  1.0
  Ni  Ni44  1  0.90344042  0.81272937  0.89575687  1.0
  Ni  Ni45  1  0.04232931  0.32661826  0.85409021  1.0
  Ni  Ni46  1  0.04232931  0.65995160  0.85409021  1.0
  Ni  Ni47  1  0.04232931  0.99328493  0.85409021  1.0
  Ni  Ni48  1  0.37566264  0.32661826  0.85409021  1.0
  Ni  Ni49  1  0.37566264  0.65995160  0.85409021  1.0
  Ni  Ni50  1  0.37566264  0.99328493  0.85409021  1.0
  Ni  Ni51  1  0.70899597  0.32661826  0.85409021  1.0
  Ni  Ni52  1  0.70899597  0.65995160  0.85409021  1.0
  Ni  Ni53  1  0.70899597  0.99328493  0.85409021  1.0
  Ni  Ni54  1  0.07821097  0.08543576  0.90974771  1.0
  Ni  Ni55  1  0.07821097  0.41876910  0.90974771  1.0
  Ni  Ni56  1  0.07821097  0.75210243  0.90974771  1.0
  Ni  Ni57  1  0.41154431  0.08543576  0.90974771  1.0
  Ni  Ni58  1  0.41154431  0.41876910  0.90974771  1.0
  Ni  Ni59  1  0.41154431  0.75210243  0.90974771  1.0
  Ni  Ni60  1  0.74487764  0.08543576  0.90974771  1.0
  Ni  Ni61  1  0.74487764  0.41876910  0.90974771  1.0
  Ni  Ni62  1  0.74487764  0.75210243  0.90974771  1.0
  Ni  Ni63  1  0.21709986  0.26599132  0.86808104  1.0
  Ni  Ni64  1  0.21709986  0.59932465  0.86808104  1.0
  Ni  Ni65  1  0.21709986  0.93265799  0.86808104  1.0
  Ni  Ni66  1  0.55043319  0.26599132  0.86808104  1.0
  Ni  Ni67  1  0.55043319  0.59932465  0.86808104  1.0
  Ni  Ni68  1  0.55043319  0.93265799  0.86808104  1.0
  Ni  Ni69  1  0.88376653  0.26599132  0.86808104  1.0
  Ni  Ni70  1  0.88376653  0.59932465  0.86808104  1.0
  Ni  Ni71  1  0.88376653  0.93265799  0.86808104  1.0
  Ni  Ni72  1  0.18121819  0.17384049  0.81242354  1.0
  Ni  Ni73  1  0.18121819  0.50717382  0.81242354  1.0
  Ni  Ni74  1  0.18121819  0.84050715  0.81242354  1.0
  Ni  Ni75  1  0.51455153  0.17384049  0.81242354  1.0
  Ni  Ni76  1  0.51455153  0.50717382  0.81242354  1.0
  Ni  Ni77  1  0.51455153  0.84050715  0.81242354  1.0
  Ni  Ni78  1  0.84788486  0.17384049  0.81242354  1.0
  Ni  Ni79  1  0.84788486  0.50717382  0.81242354  1.0
  Ni  Ni80  1  0.84788486  0.84050715  0.81242354  1.0
  Ni  Ni81  1  0.32010708  0.02106271  0.77075688  1.0
  Ni  Ni82  1  0.32010708  0.35439604  0.77075688  1.0
  Ni  Ni83  1  0.32010708  0.68772938  0.77075688  1.0
  Ni  Ni84  1  0.65344042  0.02106271  0.77075688  1.0
  Ni  Ni85  1  0.65344042  0.35439604  0.77075688  1.0
  Ni  Ni86  1  0.65344042  0.68772938  0.77075688  1.0
  Ni  Ni87  1  0.98677375  0.02106271  0.77075687  1.0
  Ni  Ni88  1  0.98677375  0.35439604  0.77075687  1.0
  Ni  Ni89  1  0.98677375  0.68772938  0.77075688  1.0
  Ni  Ni90  1  0.02265542  0.11321354  0.82641438  1.0
  Ni  Ni91  1  0.02265542  0.44654687  0.82641438  1.0
  Ni  Ni92  1  0.02265542  0.77988021  0.82641438  1.0
  Ni  Ni93  1  0.35598875  0.11321354  0.82641438  1.0
  Ni  Ni94  1  0.35598875  0.44654687  0.82641438  1.0
  Ni  Ni95  1  0.35598875  0.77988021  0.82641438  1.0
  Ni  Ni96  1  0.68932208  0.11321354  0.82641437  1.0
  Ni  Ni97  1  0.68932208  0.44654687  0.82641437  1.0
  Ni  Ni98  1  0.68932208  0.77988021  0.82641438  1.0
  Ni  Ni99  1  0.16154431  0.29376910  0.78474771  1.0
  Ni  Ni100  1  0.16154431  0.62710243  0.78474771  1.0
  Ni  Ni101  1  0.16154431  0.96043576  0.78474771  1.0
  Ni  Ni102  1  0.49487764  0.29376910  0.78474771  1.0
  Ni  Ni103  1  0.49487764  0.62710243  0.78474771  1.0
  Ni  Ni104  1  0.49487764  0.96043576  0.78474771  1.0
  Ni  Ni105  1  0.82821097  0.29376910  0.78474771  1.0
  Ni  Ni106  1  0.82821097  0.62710243  0.78474771  1.0
  Ni  Ni107  1  0.82821097  0.96043576  0.78474771  1.0
  Ni  Ni108  1  0.12566264  0.20161826  0.72909021  1.0
  Ni  Ni109  1  0.12566264  0.53495160  0.72909021  1.0
  Ni  Ni110  1  0.12566264  0.86828493  0.72909021  1.0
  Ni  Ni111  1  0.45899597  0.20161826  0.72909021  1.0
  Ni  Ni112  1  0.45899597  0.53495160  0.72909021  1.0
  Ni  Ni113  1  0.45899597  0.86828493  0.72909021  1.0
  Ni  Ni114  1  0.79232931  0.20161826  0.72909021  1.0
  Ni  Ni115  1  0.79232931  0.53495160  0.72909021  1.0
  Ni  Ni116  1  0.79232931  0.86828493  0.72909021  1.0
  Ni  Ni117  1  0.26455153  0.04884049  0.68742354  1.0
  Ni  Ni118  1  0.26455153  0.38217382  0.68742354  1.0
  Ni  Ni119  1  0.26455153  0.71550715  0.68742354  1.0
  Ni  Ni120  1  0.59788486  0.04884049  0.68742354  1.0
  Ni  Ni121  1  0.59788486  0.38217382  0.68742354  1.0
  Ni  Ni122  1  0.59788486  0.71550715  0.68742354  1.0
  Ni  Ni123  1  0.93121819  0.04884049  0.68742354  1.0
  Ni  Ni124  1  0.93121819  0.38217382  0.68742354  1.0
  Ni  Ni125  1  0.93121819  0.71550715  0.68742354  1.0
  Ni  Ni126  1  0.30043319  0.14099132  0.74308104  1.0
  Ni  Ni127  1  0.30043319  0.47432465  0.74308104  1.0
  Ni  Ni128  1  0.30043319  0.80765799  0.74308104  1.0
  Ni  Ni129  1  0.63376653  0.14099132  0.74308104  1.0
  Ni  Ni130  1  0.63376653  0.47432465  0.74308104  1.0
  Ni  Ni131  1  0.63376653  0.80765799  0.74308104  1.0
  Ni  Ni132  1  0.96709986  0.14099132  0.74308104  1.0
  Ni  Ni133  1  0.96709986  0.47432465  0.74308104  1.0
  Ni  Ni134  1  0.96709986  0.80765799  0.74308104  1.0
  Ni  Ni135  1  0.10598875  0.32154688  0.70141438  1.0
  Ni  Ni136  1  0.10598875  0.65488021  0.70141438  1.0
  Ni  Ni137  1  0.10598875  0.98821354  0.70141438  1.0
  Ni  Ni138  1  0.43932208  0.32154688  0.70141438  1.0
  Ni  Ni139  1  0.43932208  0.65488021  0.70141438  1.0
  Ni  Ni140  1  0.43932208  0.98821354  0.70141438  1.0
  Ni  Ni141  1  0.77265542  0.32154688  0.70141438  1.0
  Ni  Ni142  1  0.77265542  0.65488021  0.70141437  1.0
  Ni  Ni143  1  0.77265542  0.98821354  0.70141438  1.0
  Ni  Ni144  1  0.07010708  0.22939604  0.64575688  1.0
  Ni  Ni145  1  0.07010708  0.56272937  0.64575688  1.0
  Ni  Ni146  1  0.07010708  0.89606271  0.64575688  1.0
  Ni  Ni147  1  0.40344042  0.22939604  0.64575688  1.0
  Ni  Ni148  1  0.40344042  0.56272937  0.64575688  1.0
  Ni  Ni149  1  0.40344042  0.89606271  0.64575688  1.0
  Ni  Ni150  1  0.73677375  0.22939604  0.64575688  1.0
  Ni  Ni151  1  0.73677375  0.56272937  0.64575688  1.0
  Ni  Ni152  1  0.73677375  0.89606271  0.64575688  1.0
  Ni  Ni153  1  0.20899597  0.07661826  0.60409021  1.0
  Ni  Ni154  1  0.20899597  0.40995160  0.60409021  1.0
  Ni  Ni155  1  0.20899597  0.74328493  0.60409021  1.0
  Ni  Ni156  1  0.54232931  0.07661826  0.60409021  1.0
  Ni  Ni157  1  0.54232931  0.40995160  0.60409021  1.0
  Ni  Ni158  1  0.54232931  0.74328493  0.60409021  1.0
  Ni  Ni159  1  0.87566264  0.07661826  0.60409021  1.0
  Ni  Ni160  1  0.87566264  0.40995160  0.60409021  1.0
  Ni  Ni161  1  0.87566264  0.74328493  0.60409021  1.0
  Ni  Ni162  1  0.24487764  0.16876910  0.65974771  1.0
  Ni  Ni163  1  0.24487764  0.50210243  0.65974771  1.0
  Ni  Ni164  1  0.24487764  0.83543576  0.65974771  1.0
  Ni  Ni165  1  0.57821097  0.16876910  0.65974771  1.0
  Ni  Ni166  1  0.57821097  0.50210243  0.65974771  1.0
  Ni  Ni167  1  0.57821097  0.83543576  0.65974771  1.0
  Ni  Ni168  1  0.91154431  0.16876910  0.65974771  1.0
  Ni  Ni169  1  0.91154431  0.50210243  0.65974771  1.0
  Ni  Ni170  1  0.91154431  0.83543576  0.65974771  1.0
  Ni  Ni171  1  0.05043319  0.01599132  0.61808104  1.0
  Ni  Ni172  1  0.05043319  0.34932465  0.61808104  1.0
  Ni  Ni173  1  0.05043319  0.68265799  0.61808104  1.0
  Ni  Ni174  1  0.38376653  0.01599132  0.61808104  1.0
  Ni  Ni175  1  0.38376653  0.34932465  0.61808104  1.0
  Ni  Ni176  1  0.38376653  0.68265799  0.61808104  1.0
  Ni  Ni177  1  0.71709986  0.01599132  0.61808104  1.0
  Ni  Ni178  1  0.71709986  0.34932465  0.61808104  1.0
  Ni  Ni179  1  0.71709986  0.68265799  0.61808104  1.0
  V  V180  1  0.25471458  0.02547146  0.92358562  1.0
  V  V181  1  0.25471458  0.35880479  0.92358562  1.0
  V  V182  1  0.25471458  0.69213812  0.92358562  1.0
  V  V183  1  0.58804792  0.02547146  0.92358562  1.0
  V  V184  1  0.58804792  0.35880479  0.92358562  1.0
  V  V185  1  0.58804792  0.69213812  0.92358562  1.0
  V  V186  1  0.92138125  0.02547146  0.92358562  1.0
  V  V187  1  0.92138125  0.35880479  0.92358562  1.0
  V  V188  1  0.92138125  0.69213812  0.92358562  1.0
  V  V189  1  0.11582569  0.17824924  0.96525229  1.0
  V  V190  1  0.11582569  0.51158257  0.96525229  1.0
  V  V191  1  0.11582569  0.84491590  0.96525229  1.0
  V  V192  1  0.44915903  0.17824924  0.96525229  1.0
  V  V193  1  0.44915903  0.51158257  0.96525229  1.0
  V  V194  1  0.44915903  0.84491590  0.96525229  1.0
  V  V195  1  0.78249236  0.17824924  0.96525229  1.0
  V  V196  1  0.78249236  0.51158257  0.96525229  1.0
  V  V197  1  0.78249236  0.84491590  0.96525229  1.0
  V  V198  1  0.19915903  0.05324924  0.84025229  1.0
  V  V199  1  0.19915903  0.38658257  0.84025229  1.0
  V  V200  1  0.19915903  0.71991590  0.84025229  1.0
  V  V201  1  0.53249236  0.05324924  0.84025229  1.0
  V  V202  1  0.53249236  0.38658257  0.84025229  1.0
  V  V203  1  0.53249236  0.71991590  0.84025229  1.0
  V  V204  1  0.86582569  0.05324924  0.84025229  1.0
  V  V205  1  0.86582569  0.38658257  0.84025229  1.0
  V  V206  1  0.86582569  0.71991590  0.84025229  1.0
  V  V207  1  0.06027014  0.20602701  0.88191896  1.0
  V  V208  1  0.06027014  0.53936035  0.88191896  1.0
  V  V209  1  0.06027014  0.87269368  0.88191896  1.0
  V  V210  1  0.39360347  0.20602701  0.88191896  1.0
  V  V211  1  0.39360347  0.53936035  0.88191896  1.0
  V  V212  1  0.39360347  0.87269368  0.88191896  1.0
  V  V213  1  0.72693681  0.20602701  0.88191896  1.0
  V  V214  1  0.72693681  0.53936035  0.88191896  1.0
  V  V215  1  0.72693681  0.87269368  0.88191896  1.0
  V  V216  1  0.14360347  0.08102701  0.75691896  1.0
  V  V217  1  0.14360347  0.41436035  0.75691896  1.0
  V  V218  1  0.14360347  0.74769368  0.75691896  1.0
  V  V219  1  0.47693681  0.08102701  0.75691896  1.0
  V  V220  1  0.47693681  0.41436035  0.75691896  1.0
  V  V221  1  0.47693681  0.74769368  0.75691896  1.0
  V  V222  1  0.81027014  0.08102701  0.75691896  1.0
  V  V223  1  0.81027014  0.41436035  0.75691896  1.0
  V  V224  1  0.81027014  0.74769368  0.75691896  1.0
  V  V225  1  0.00471458  0.23380479  0.79858563  1.0
  V  V226  1  0.00471458  0.56713812  0.79858563  1.0
  V  V227  1  0.00471458  0.90047146  0.79858563  1.0
  V  V228  1  0.33804792  0.23380479  0.79858563  1.0
  V  V229  1  0.33804792  0.56713812  0.79858563  1.0
  V  V230  1  0.33804792  0.90047146  0.79858563  1.0
  V  V231  1  0.67138125  0.23380479  0.79858563  1.0
  V  V232  1  0.67138125  0.56713812  0.79858563  1.0
  V  V233  1  0.67138125  0.90047146  0.79858563  1.0
  V  V234  1  0.08804792  0.10880479  0.67358562  1.0
  V  V235  1  0.08804792  0.44213812  0.67358562  1.0
  V  V236  1  0.08804792  0.77547146  0.67358562  1.0
  V  V237  1  0.42138125  0.10880479  0.67358563  1.0
  V  V238  1  0.42138125  0.44213812  0.67358563  1.0
  V  V239  1  0.42138125  0.77547146  0.67358562  1.0
  V  V240  1  0.75471458  0.10880479  0.67358562  1.0
  V  V241  1  0.75471458  0.44213812  0.67358562  1.0
  V  V242  1  0.75471458  0.77547146  0.67358563  1.0
  V  V243  1  0.28249236  0.26158257  0.71525229  1.0
  V  V244  1  0.28249236  0.59491590  0.71525229  1.0
  V  V245  1  0.28249236  0.92824924  0.71525229  1.0
  V  V246  1  0.61582569  0.26158257  0.71525229  1.0
  V  V247  1  0.61582569  0.59491590  0.71525229  1.0
  V  V248  1  0.61582569  0.92824924  0.71525229  1.0
  V  V249  1  0.94915903  0.26158257  0.71525229  1.0
  V  V250  1  0.94915903  0.59491590  0.71525229  1.0
  V  V251  1  0.94915903  0.92824924  0.71525229  1.0
  V  V252  1  0.03249236  0.13658257  0.59025229  1.0
  V  V253  1  0.03249236  0.46991590  0.59025229  1.0
  V  V254  1  0.03249236  0.80324924  0.59025229  1.0
  V  V255  1  0.36582569  0.13658257  0.59025229  1.0
  V  V256  1  0.36582569  0.46991590  0.59025229  1.0
  V  V257  1  0.36582569  0.80324924  0.59025229  1.0
  V  V258  1  0.69915903  0.13658257  0.59025229  1.0
  V  V259  1  0.69915903  0.46991590  0.59025229  1.0
  V  V260  1  0.69915903  0.80324924  0.59025229  1.0
  V  V261  1  0.22693681  0.28936035  0.63191896  1.0
  V  V262  1  0.22693681  0.62269368  0.63191896  1.0
  V  V263  1  0.22693681  0.95602701  0.63191896  1.0
  V  V264  1  0.56027014  0.28936035  0.63191896  1.0
  V  V265  1  0.56027014  0.62269368  0.63191896  1.0
  V  V266  1  0.56027014  0.95602701  0.63191896  1.0
  V  V267  1  0.89360347  0.28936035  0.63191896  1.0
  V  V268  1  0.89360347  0.62269368  0.63191896  1.0
  V  V269  1  0.89360347  0.95602701  0.63191896  1.0
