# generated using pymatgen
data_VNi3
_symmetry_space_group_name_H-M   'P 1'
_cell_length_a   7.56146400
_cell_length_b   7.56146400
_cell_length_c   35.61186000
_cell_angle_alpha   90.00000000
_cell_angle_beta   90.00000000
_cell_angle_gamma   90.00000000
_symmetry_Int_Tables_number   1
_chemical_formula_structural   VNi3
_chemical_formula_sum   'V18 Ni54'
_cell_volume   2036.13437076
_cell_formula_units_Z   18
loop_
 _symmetry_equiv_pos_site_id
 _symmetry_equiv_pos_as_xyz
  1  'x, y, z'
loop_
 _atom_site_type_symbol
 _atom_site_label
 _atom_site_symmetry_multiplicity
 _atom_site_fract_x
 _atom_site_fract_y
 _atom_site_fract_z
 _atom_site_occupancy
  V  V0  1  0.00000000  0.00000000  0.17469800  1.0
  V  V1  1  0.00000000  0.33333333  0.17469800  1.0
  V  V2  1  0.00000000  0.66666667  0.17469800  1.0
  V  V3  1  0.33333333  0.00000000  0.17469800  1.0
  V  V4  1  0.33333333  0.33333333  0.17469800  1.0
  V  V5  1  0.33333333  0.66666667  0.17469800  1.0
  V  V6  1  0.66666667  0.00000000  0.17469800  1.0
  V  V7  1  0.66666667  0.33333333  0.17469800  1.0
  V  V8  1  0.66666667  0.66666667  0.17469800  1.0
  Ni  Ni9  1  0.16666667  0.16666667  0.12409400  1.0
  Ni  Ni10  1  0.16666667  0.50000000  0.12409400  1.0
  Ni  Ni11  1  0.16666667  0.83333333  0.12409400  1.0
  Ni  Ni12  1  0.50000000  0.16666667  0.12409400  1.0
  Ni  Ni13  1  0.50000000  0.50000000  0.12409400  1.0
  Ni  Ni14  1  0.50000000  0.83333333  0.12409400  1.0
  Ni  Ni15  1  0.83333333  0.16666667  0.12409400  1.0
  Ni  Ni16  1  0.83333333  0.50000000  0.12409400  1.0
  Ni  Ni17  1  0.83333333  0.83333333  0.12409400  1.0
  Ni  Ni18  1  0.00000000  0.00000000  0.07469800  1.0
  Ni  Ni19  1  0.00000000  0.33333333  0.07469800  1.0
  Ni  Ni20  1  0.00000000  0.66666667  0.07469800  1.0
  Ni  Ni21  1  0.33333333  0.00000000  0.07469800  1.0
  Ni  Ni22  1  0.33333333  0.33333333  0.07469800  1.0
  Ni  Ni23  1  0.33333333  0.66666667  0.07469800  1.0
  Ni  Ni24  1  0.66666667  0.00000000  0.07469800  1.0
  Ni  Ni25  1  0.66666667  0.33333333  0.07469800  1.0
  Ni  Ni26  1  0.66666667  0.66666667  0.07469800  1.0
  Ni  Ni27  1  0.16666667  0.16666667  0.02530200  1.0
  Ni  Ni28  1  0.16666667  0.50000000  0.02530200  1.0
  Ni  Ni29  1  0.16666667  0.83333333  0.02530200  1.0
  Ni  Ni30  1  0.50000000  0.16666667  0.02530200  1.0
  Ni  Ni31  1  0.50000000  0.50000000  0.02530200  1.0
  Ni  Ni32  1  0.50000000  0.83333333  0.02530200  1.0
  Ni  Ni33  1  0.83333333  0.16666667  0.02530200  1.0
  Ni  Ni34  1  0.83333333  0.50000000  0.02530200  1.0
  Ni  Ni35  1  0.83333333  0.83333333  0.02530200  1.0
  V  V36  1  0.00000000  0.00000000  0.37469800  1.0
  V  V37  1  0.00000000  0.33333333  0.37469800  1.0
  V  V38  1  0.00000000  0.66666667  0.37469800  1.0
  V  V39  1  0.33333333  0.00000000  0.37469800  1.0
  V  V40  1  0.33333333  0.33333333  0.37469800  1.0
  V  V41  1  0.33333333  0.66666667  0.37469800  1.0
  V  V42  1  0.66666667  0.00000000  0.37469800  1.0
  V  V43  1  0.66666667  0.33333333  0.37469800  1.0
  V  V44  1  0.66666667  0.66666667  0.37469800  1.0
  Ni  Ni45  1  0.16666667  0.16666667  0.32409400  1.0
  Ni  Ni46  1  0.16666667  0.50000000  0.32409400  1.0
  Ni  Ni47  1  0.16666667  0.83333333  0.32409400  1.0
  Ni  Ni48  1  0.50000000  0.16666667  0.32409400  1.0
  Ni  Ni49  1  0.50000000  0.50000000  0.32409400  1.0
  Ni  Ni50  1  0.50000000  0.83333333  0.32409400  1.0
  Ni  Ni51  1  0.83333333  0.16666667  0.32409400  1.0
  Ni  Ni52  1  0.83333333  0.50000000  0.32409400  1.0
  Ni  Ni53  1  0.83333333  0.83333333  0.32409400  1.0
  Ni  Ni54  1  0.00000000  0.00000000  0.27469800  1.0
  Ni  Ni55  1  0.00000000  0.33333333  0.27469800  1.0
  Ni  Ni56  1  0.00000000  0.66666667  0.27469800  1.0
  Ni  Ni57  1  0.33333333  0.00000000  0.27469800  1.0
  Ni  Ni58  1  0.33333333  0.33333333  0.27469800  1.0
  Ni  Ni59  1  0.33333333  0.66666667  0.27469800  1.0
  Ni  Ni60  1  0.66666667  0.00000000  0.27469800  1.0
  Ni  Ni61  1  0.66666667  0.33333333  0.27469800  1.0
  Ni  Ni62  1  0.66666667  0.66666667  0.27469800  1.0
  Ni  Ni63  1  0.16666667  0.16666667  0.22530200  1.0
  Ni  Ni64  1  0.16666667  0.50000000  0.22530200  1.0
  Ni  Ni65  1  0.16666667  0.83333333  0.22530200  1.0
  Ni  Ni66  1  0.50000000  0.16666667  0.22530200  1.0
  Ni  Ni67  1  0.50000000  0.50000000  0.22530200  1.0
  Ni  Ni68  1  0.50000000  0.83333333  0.22530200  1.0
  Ni  Ni69  1  0.83333333  0.16666667  0.22530200  1.0
  Ni  Ni70  1  0.83333333  0.50000000  0.22530200  1.0
  Ni  Ni71  1  0.83333333  0.83333333  0.22530200  1.0
