# generated using pymatgen
data_VNi3
_symmetry_space_group_name_H-M   'P 1'
_cell_length_a   24.99292431
_cell_length_b   7.53937141
_cell_length_c   99.97169724
_cell_angle_alpha   98.67503612
_cell_angle_beta   17.35007224
_cell_angle_gamma   90.00000000
_symmetry_Int_Tables_number   1
_chemical_formula_structural   VNi3
_chemical_formula_sum   'V45 Ni135'
_cell_volume   4846.06560285
_cell_formula_units_Z   45
loop_
 _symmetry_equiv_pos_site_id
 _symmetry_equiv_pos_as_xyz
  1  'x, y, z'
loop_
 _atom_site_type_symbol
 _atom_site_label
 _atom_site_symmetry_multiplicity
 _atom_site_fract_x
 _atom_site_fract_y
 _atom_site_fract_z
 _atom_site_occupancy
  V  V0  1  0.00000000  0.00000000  0.06249533  1.0
  V  V1  1  0.00000000  0.33333333  0.06249533  1.0
  V  V2  1  0.00000000  0.66666667  0.06249533  1.0
  V  V3  1  0.33333333  0.00000000  0.06249533  1.0
  V  V4  1  0.33333333  0.33333333  0.06249533  1.0
  V  V5  1  0.33333333  0.66666667  0.06249533  1.0
  V  V6  1  0.66666667  0.00000000  0.06249533  1.0
  V  V7  1  0.66666667  0.33333333  0.06249533  1.0
  V  V8  1  0.66666667  0.66666667  0.06249533  1.0
  Ni  Ni9  1  0.08331467  0.08331467  0.02081933  1.0
  Ni  Ni10  1  0.08331467  0.41664800  0.02081933  1.0
  Ni  Ni11  1  0.08331467  0.74998133  0.02081933  1.0
  Ni  Ni12  1  0.41664800  0.08331467  0.02081933  1.0
  Ni  Ni13  1  0.41664800  0.41664800  0.02081933  1.0
  Ni  Ni14  1  0.41664800  0.74998133  0.02081933  1.0
  Ni  Ni15  1  0.74998133  0.08331467  0.02081933  1.0
  Ni  Ni16  1  0.74998133  0.41664800  0.02081933  1.0
  Ni  Ni17  1  0.74998133  0.74998133  0.02081933  1.0
  Ni  Ni18  1  0.16666667  0.16666667  0.06249533  1.0
  Ni  Ni19  1  0.16666667  0.50000000  0.06249533  1.0
  Ni  Ni20  1  0.16666667  0.83333333  0.06249533  1.0
  Ni  Ni21  1  0.50000000  0.16666667  0.06249533  1.0
  Ni  Ni22  1  0.50000000  0.50000000  0.06249533  1.0
  Ni  Ni23  1  0.50000000  0.83333333  0.06249533  1.0
  Ni  Ni24  1  0.83333333  0.16666667  0.06249533  1.0
  Ni  Ni25  1  0.83333333  0.50000000  0.06249533  1.0
  Ni  Ni26  1  0.83333333  0.83333333  0.06249533  1.0
  Ni  Ni27  1  0.25001867  0.25001867  0.02083800  1.0
  Ni  Ni28  1  0.25001867  0.58335200  0.02083800  1.0
  Ni  Ni29  1  0.25001867  0.91668533  0.02083800  1.0
  Ni  Ni30  1  0.58335200  0.25001867  0.02083800  1.0
  Ni  Ni31  1  0.58335200  0.58335200  0.02083800  1.0
  Ni  Ni32  1  0.58335200  0.91668533  0.02083800  1.0
  Ni  Ni33  1  0.91668533  0.25001867  0.02083800  1.0
  Ni  Ni34  1  0.91668533  0.58335200  0.02083800  1.0
  Ni  Ni35  1  0.91668533  0.91668533  0.02083800  1.0
  V  V36  1  0.00000000  0.00000000  0.14582867  1.0
  V  V37  1  0.00000000  0.33333333  0.14582867  1.0
  V  V38  1  0.00000000  0.66666667  0.14582867  1.0
  V  V39  1  0.33333333  0.00000000  0.14582867  1.0
  V  V40  1  0.33333333  0.33333333  0.14582867  1.0
  V  V41  1  0.33333333  0.66666667  0.14582867  1.0
  V  V42  1  0.66666667  0.00000000  0.14582867  1.0
  V  V43  1  0.66666667  0.33333333  0.14582867  1.0
  V  V44  1  0.66666667  0.66666667  0.14582867  1.0
  Ni  Ni45  1  0.08331467  0.08331467  0.10415267  1.0
  Ni  Ni46  1  0.08331467  0.41664800  0.10415267  1.0
  Ni  Ni47  1  0.08331467  0.74998133  0.10415267  1.0
  Ni  Ni48  1  0.41664800  0.08331467  0.10415267  1.0
  Ni  Ni49  1  0.41664800  0.41664800  0.10415267  1.0
  Ni  Ni50  1  0.41664800  0.74998133  0.10415267  1.0
  Ni  Ni51  1  0.74998133  0.08331467  0.10415267  1.0
  Ni  Ni52  1  0.74998133  0.41664800  0.10415267  1.0
  Ni  Ni53  1  0.74998133  0.74998133  0.10415267  1.0
  Ni  Ni54  1  0.16666667  0.16666667  0.14582867  1.0
  Ni  Ni55  1  0.16666667  0.50000000  0.14582867  1.0
  Ni  Ni56  1  0.16666667  0.83333333  0.14582867  1.0
  Ni  Ni57  1  0.50000000  0.16666667  0.14582867  1.0
  Ni  Ni58  1  0.50000000  0.50000000  0.14582867  1.0
  Ni  Ni59  1  0.50000000  0.83333333  0.14582867  1.0
  Ni  Ni60  1  0.83333333  0.16666667  0.14582867  1.0
  Ni  Ni61  1  0.83333333  0.50000000  0.14582867  1.0
  Ni  Ni62  1  0.83333333  0.83333333  0.14582867  1.0
  Ni  Ni63  1  0.25001867  0.25001867  0.10417133  1.0
  Ni  Ni64  1  0.25001867  0.58335200  0.10417133  1.0
  Ni  Ni65  1  0.25001867  0.91668533  0.10417133  1.0
  Ni  Ni66  1  0.58335200  0.25001867  0.10417133  1.0
  Ni  Ni67  1  0.58335200  0.58335200  0.10417133  1.0
  Ni  Ni68  1  0.58335200  0.91668533  0.10417133  1.0
  Ni  Ni69  1  0.91668533  0.25001867  0.10417133  1.0
  Ni  Ni70  1  0.91668533  0.58335200  0.10417133  1.0
  Ni  Ni71  1  0.91668533  0.91668533  0.10417133  1.0
  V  V72  1  0.00000000  0.00000000  0.22916200  1.0
  V  V73  1  0.00000000  0.33333333  0.22916200  1.0
  V  V74  1  0.00000000  0.66666667  0.22916200  1.0
  V  V75  1  0.33333333  0.00000000  0.22916200  1.0
  V  V76  1  0.33333333  0.33333333  0.22916200  1.0
  V  V77  1  0.33333333  0.66666667  0.22916200  1.0
  V  V78  1  0.66666667  0.00000000  0.22916200  1.0
  V  V79  1  0.66666667  0.33333333  0.22916200  1.0
  V  V80  1  0.66666667  0.66666667  0.22916200  1.0
  Ni  Ni81  1  0.08331467  0.08331467  0.18748600  1.0
  Ni  Ni82  1  0.08331467  0.41664800  0.18748600  1.0
  Ni  Ni83  1  0.08331467  0.74998133  0.18748600  1.0
  Ni  Ni84  1  0.41664800  0.08331467  0.18748600  1.0
  Ni  Ni85  1  0.41664800  0.41664800  0.18748600  1.0
  Ni  Ni86  1  0.41664800  0.74998133  0.18748600  1.0
  Ni  Ni87  1  0.74998133  0.08331467  0.18748600  1.0
  Ni  Ni88  1  0.74998133  0.41664800  0.18748600  1.0
  Ni  Ni89  1  0.74998133  0.74998133  0.18748600  1.0
  Ni  Ni90  1  0.16666667  0.16666667  0.22916200  1.0
  Ni  Ni91  1  0.16666667  0.50000000  0.22916200  1.0
  Ni  Ni92  1  0.16666667  0.83333333  0.22916200  1.0
  Ni  Ni93  1  0.50000000  0.16666667  0.22916200  1.0
  Ni  Ni94  1  0.50000000  0.50000000  0.22916200  1.0
  Ni  Ni95  1  0.50000000  0.83333333  0.22916200  1.0
  Ni  Ni96  1  0.83333333  0.16666667  0.22916200  1.0
  Ni  Ni97  1  0.83333333  0.50000000  0.22916200  1.0
  Ni  Ni98  1  0.83333333  0.83333333  0.22916200  1.0
  Ni  Ni99  1  0.25001867  0.25001867  0.18750467  1.0
  Ni  Ni100  1  0.25001867  0.58335200  0.18750467  1.0
  Ni  Ni101  1  0.25001867  0.91668533  0.18750467  1.0
  Ni  Ni102  1  0.58335200  0.25001867  0.18750467  1.0
  Ni  Ni103  1  0.58335200  0.58335200  0.18750467  1.0
  Ni  Ni104  1  0.58335200  0.91668533  0.18750467  1.0
  Ni  Ni105  1  0.91668533  0.25001867  0.18750467  1.0
  Ni  Ni106  1  0.91668533  0.58335200  0.18750467  1.0
  Ni  Ni107  1  0.91668533  0.91668533  0.18750467  1.0
  V  V108  1  0.00000000  0.00000000  0.31249533  1.0
  V  V109  1  0.00000000  0.33333333  0.31249533  1.0
  V  V110  1  0.00000000  0.66666667  0.31249533  1.0
  V  V111  1  0.33333333  0.00000000  0.31249533  1.0
  V  V112  1  0.33333333  0.33333333  0.31249533  1.0
  V  V113  1  0.33333333  0.66666667  0.31249533  1.0
  V  V114  1  0.66666667  0.00000000  0.31249533  1.0
  V  V115  1  0.66666667  0.33333333  0.31249533  1.0
  V  V116  1  0.66666667  0.66666667  0.31249533  1.0
  Ni  Ni117  1  0.08331467  0.08331467  0.27081933  1.0
  Ni  Ni118  1  0.08331467  0.41664800  0.27081933  1.0
  Ni  Ni119  1  0.08331467  0.74998133  0.27081933  1.0
  Ni  Ni120  1  0.41664800  0.08331467  0.27081933  1.0
  Ni  Ni121  1  0.41664800  0.41664800  0.27081933  1.0
  Ni  Ni122  1  0.41664800  0.74998133  0.27081933  1.0
  Ni  Ni123  1  0.74998133  0.08331467  0.27081933  1.0
  Ni  Ni124  1  0.74998133  0.41664800  0.27081933  1.0
  Ni  Ni125  1  0.74998133  0.74998133  0.27081933  1.0
  Ni  Ni126  1  0.16666667  0.16666667  0.31249533  1.0
  Ni  Ni127  1  0.16666667  0.50000000  0.31249533  1.0
  Ni  Ni128  1  0.16666667  0.83333333  0.31249533  1.0
  Ni  Ni129  1  0.50000000  0.16666667  0.31249533  1.0
  Ni  Ni130  1  0.50000000  0.50000000  0.31249533  1.0
  Ni  Ni131  1  0.50000000  0.83333333  0.31249533  1.0
  Ni  Ni132  1  0.83333333  0.16666667  0.31249533  1.0
  Ni  Ni133  1  0.83333333  0.50000000  0.31249533  1.0
  Ni  Ni134  1  0.83333333  0.83333333  0.31249533  1.0
  Ni  Ni135  1  0.25001867  0.25001867  0.27083800  1.0
  Ni  Ni136  1  0.25001867  0.58335200  0.27083800  1.0
  Ni  Ni137  1  0.25001867  0.91668533  0.27083800  1.0
  Ni  Ni138  1  0.58335200  0.25001867  0.27083800  1.0
  Ni  Ni139  1  0.58335200  0.58335200  0.27083800  1.0
  Ni  Ni140  1  0.58335200  0.91668533  0.27083800  1.0
  Ni  Ni141  1  0.91668533  0.25001867  0.27083800  1.0
  Ni  Ni142  1  0.91668533  0.58335200  0.27083800  1.0
  Ni  Ni143  1  0.91668533  0.91668533  0.27083800  1.0
  V  V144  1  0.00000000  0.00000000  0.39582867  1.0
  V  V145  1  0.00000000  0.33333333  0.39582867  1.0
  V  V146  1  0.00000000  0.66666667  0.39582867  1.0
  V  V147  1  0.33333333  0.00000000  0.39582867  1.0
  V  V148  1  0.33333333  0.33333333  0.39582867  1.0
  V  V149  1  0.33333333  0.66666667  0.39582867  1.0
  V  V150  1  0.66666667  0.00000000  0.39582867  1.0
  V  V151  1  0.66666667  0.33333333  0.39582867  1.0
  V  V152  1  0.66666667  0.66666667  0.39582867  1.0
  Ni  Ni153  1  0.08331467  0.08331467  0.35415267  1.0
  Ni  Ni154  1  0.08331467  0.41664800  0.35415267  1.0
  Ni  Ni155  1  0.08331467  0.74998133  0.35415267  1.0
  Ni  Ni156  1  0.41664800  0.08331467  0.35415267  1.0
  Ni  Ni157  1  0.41664800  0.41664800  0.35415267  1.0
  Ni  Ni158  1  0.41664800  0.74998133  0.35415267  1.0
  Ni  Ni159  1  0.74998133  0.08331467  0.35415267  1.0
  Ni  Ni160  1  0.74998133  0.41664800  0.35415267  1.0
  Ni  Ni161  1  0.74998133  0.74998133  0.35415267  1.0
  Ni  Ni162  1  0.16666667  0.16666667  0.39582867  1.0
  Ni  Ni163  1  0.16666667  0.50000000  0.39582867  1.0
  Ni  Ni164  1  0.16666667  0.83333333  0.39582867  1.0
  Ni  Ni165  1  0.50000000  0.16666667  0.39582867  1.0
  Ni  Ni166  1  0.50000000  0.50000000  0.39582867  1.0
  Ni  Ni167  1  0.50000000  0.83333333  0.39582867  1.0
  Ni  Ni168  1  0.83333333  0.16666667  0.39582867  1.0
  Ni  Ni169  1  0.83333333  0.50000000  0.39582867  1.0
  Ni  Ni170  1  0.83333333  0.83333333  0.39582867  1.0
  Ni  Ni171  1  0.25001867  0.25001867  0.35417133  1.0
  Ni  Ni172  1  0.25001867  0.58335200  0.35417133  1.0
  Ni  Ni173  1  0.25001867  0.91668533  0.35417133  1.0
  Ni  Ni174  1  0.58335200  0.25001867  0.35417133  1.0
  Ni  Ni175  1  0.58335200  0.58335200  0.35417133  1.0
  Ni  Ni176  1  0.58335200  0.91668533  0.35417133  1.0
  Ni  Ni177  1  0.91668533  0.25001867  0.35417133  1.0
  Ni  Ni178  1  0.91668533  0.58335200  0.35417133  1.0
  Ni  Ni179  1  0.91668533  0.91668533  0.35417133  1.0
