# generated using pymatgen
data_VNi3
_symmetry_space_group_name_H-M   'P 1'
_cell_length_a   19.94730179
_cell_length_b   26.10533254
_cell_length_c   27.98496229
_cell_angle_alpha   92.97332676
_cell_angle_beta   91.94511908
_cell_angle_gamma   109.11558938
_symmetry_Int_Tables_number   1
_chemical_formula_structural   VNi3
_chemical_formula_sum   'V126 Ni378'
_cell_volume   13730.51920808
_cell_formula_units_Z   126
loop_
 _symmetry_equiv_pos_site_id
 _symmetry_equiv_pos_as_xyz
  1  'x, y, z'
loop_
 _atom_site_type_symbol
 _atom_site_label
 _atom_site_symmetry_multiplicity
 _atom_site_fract_x
 _atom_site_fract_y
 _atom_site_fract_z
 _atom_site_occupancy
  Ni  Ni0  1  0.23771820  0.29160133  0.99264212  1.0
  Ni  Ni1  1  0.23771820  0.62493467  0.99264212  1.0
  Ni  Ni2  1  0.23771820  0.95826800  0.99264212  1.0
  Ni  Ni3  1  0.57105153  0.29160133  0.99264212  1.0
  Ni  Ni4  1  0.57105153  0.62493467  0.99264212  1.0
  Ni  Ni5  1  0.57105153  0.95826800  0.99264212  1.0
  Ni  Ni6  1  0.90438486  0.29160133  0.99264212  1.0
  Ni  Ni7  1  0.90438486  0.62493467  0.99264212  1.0
  Ni  Ni8  1  0.90438486  0.95826800  0.99264212  1.0
  Ni  Ni9  1  0.02203192  0.29160133  0.96323035  1.0
  Ni  Ni10  1  0.02203192  0.62493467  0.96323035  1.0
  Ni  Ni11  1  0.02203192  0.95826800  0.96323035  1.0
  Ni  Ni12  1  0.35536525  0.29160133  0.96323035  1.0
  Ni  Ni13  1  0.35536525  0.62493467  0.96323035  1.0
  Ni  Ni14  1  0.35536525  0.95826800  0.96323035  1.0
  Ni  Ni15  1  0.68869859  0.29160133  0.96323035  1.0
  Ni  Ni16  1  0.68869859  0.62493467  0.96323035  1.0
  Ni  Ni17  1  0.68869859  0.95826800  0.96323035  1.0
  Ni  Ni18  1  0.24754627  0.20832400  0.94852776  1.0
  Ni  Ni19  1  0.24754627  0.54165733  0.94852776  1.0
  Ni  Ni20  1  0.24754627  0.87499067  0.94852776  1.0
  Ni  Ni21  1  0.58087961  0.20832400  0.94852776  1.0
  Ni  Ni22  1  0.58087961  0.54165733  0.94852776  1.0
  Ni  Ni23  1  0.58087961  0.87499067  0.94852776  1.0
  Ni  Ni24  1  0.91421294  0.20832400  0.94852776  1.0
  Ni  Ni25  1  0.91421294  0.54165733  0.94852776  1.0
  Ni  Ni26  1  0.91421294  0.87499067  0.94852776  1.0
  Ni  Ni27  1  0.12989922  0.20832400  0.97793953  1.0
  Ni  Ni28  1  0.12989922  0.54165733  0.97793953  1.0
  Ni  Ni29  1  0.12989922  0.87499067  0.97793953  1.0
  Ni  Ni30  1  0.46323255  0.20832400  0.97793953  1.0
  Ni  Ni31  1  0.46323255  0.54165733  0.97793953  1.0
  Ni  Ni32  1  0.46323255  0.87499067  0.97793953  1.0
  Ni  Ni33  1  0.79656588  0.20832400  0.97793953  1.0
  Ni  Ni34  1  0.79656588  0.54165733  0.97793953  1.0
  Ni  Ni35  1  0.79656588  0.87499067  0.97793953  1.0
  Ni  Ni36  1  0.02208024  0.12504667  0.96323694  1.0
  Ni  Ni37  1  0.02208024  0.45838000  0.96323694  1.0
  Ni  Ni38  1  0.02208024  0.79171333  0.96323694  1.0
  Ni  Ni39  1  0.35541357  0.12504667  0.96323694  1.0
  Ni  Ni40  1  0.35541357  0.45838000  0.96323694  1.0
  Ni  Ni41  1  0.35541357  0.79171333  0.96323694  1.0
  Ni  Ni42  1  0.68874690  0.12504667  0.96323694  1.0
  Ni  Ni43  1  0.68874690  0.45838000  0.96323694  1.0
  Ni  Ni44  1  0.68874690  0.79171333  0.96323694  1.0
  Ni  Ni45  1  0.23776651  0.12504667  0.99264871  1.0
  Ni  Ni46  1  0.23776651  0.45838000  0.99264871  1.0
  Ni  Ni47  1  0.23776651  0.79171333  0.99264871  1.0
  Ni  Ni48  1  0.57109984  0.12504667  0.99264871  1.0
  Ni  Ni49  1  0.57109984  0.45838000  0.99264871  1.0
  Ni  Ni50  1  0.57109984  0.79171333  0.99264871  1.0
  Ni  Ni51  1  0.90443318  0.12504667  0.99264871  1.0
  Ni  Ni52  1  0.90443318  0.45838000  0.99264871  1.0
  Ni  Ni53  1  0.90443318  0.79171333  0.99264871  1.0
  Ni  Ni54  1  0.13967898  0.29160133  0.93381859  1.0
  Ni  Ni55  1  0.13967898  0.62493467  0.93381859  1.0
  Ni  Ni56  1  0.13967898  0.95826800  0.93381859  1.0
  Ni  Ni57  1  0.47301231  0.29160133  0.93381859  1.0
  Ni  Ni58  1  0.47301231  0.62493467  0.93381859  1.0
  Ni  Ni59  1  0.47301231  0.95826800  0.93381859  1.0
  Ni  Ni60  1  0.80634565  0.29160133  0.93381859  1.0
  Ni  Ni61  1  0.80634565  0.62493467  0.93381859  1.0
  Ni  Ni62  1  0.80634565  0.95826800  0.93381859  1.0
  Ni  Ni63  1  0.25732604  0.29160133  0.90440682  1.0
  Ni  Ni64  1  0.25732604  0.62493467  0.90440682  1.0
  Ni  Ni65  1  0.25732604  0.95826800  0.90440682  1.0
  Ni  Ni66  1  0.59065937  0.29160133  0.90440682  1.0
  Ni  Ni67  1  0.59065937  0.62493467  0.90440682  1.0
  Ni  Ni68  1  0.59065937  0.95826800  0.90440682  1.0
  Ni  Ni69  1  0.92399271  0.29160133  0.90440682  1.0
  Ni  Ni70  1  0.92399271  0.62493467  0.90440682  1.0
  Ni  Ni71  1  0.92399271  0.95826800  0.90440682  1.0
  Ni  Ni72  1  0.14950706  0.20832400  0.88970424  1.0
  Ni  Ni73  1  0.14950706  0.54165733  0.88970424  1.0
  Ni  Ni74  1  0.14950706  0.87499067  0.88970424  1.0
  Ni  Ni75  1  0.48284039  0.20832400  0.88970424  1.0
  Ni  Ni76  1  0.48284039  0.54165733  0.88970424  1.0
  Ni  Ni77  1  0.48284039  0.87499067  0.88970424  1.0
  Ni  Ni78  1  0.81617373  0.20832400  0.88970424  1.0
  Ni  Ni79  1  0.81617373  0.54165733  0.88970424  1.0
  Ni  Ni80  1  0.81617373  0.87499067  0.88970424  1.0
  Ni  Ni81  1  0.03186000  0.20832400  0.91911600  1.0
  Ni  Ni82  1  0.03186000  0.54165733  0.91911600  1.0
  Ni  Ni83  1  0.03186000  0.87499067  0.91911600  1.0
  Ni  Ni84  1  0.36519333  0.20832400  0.91911600  1.0
  Ni  Ni85  1  0.36519333  0.54165733  0.91911600  1.0
  Ni  Ni86  1  0.36519333  0.87499067  0.91911600  1.0
  Ni  Ni87  1  0.69852667  0.20832400  0.91911600  1.0
  Ni  Ni88  1  0.69852667  0.54165733  0.91911600  1.0
  Ni  Ni89  1  0.69852667  0.87499067  0.91911600  1.0
  Ni  Ni90  1  0.25737435  0.12504667  0.90441341  1.0
  Ni  Ni91  1  0.25737435  0.45838000  0.90441341  1.0
  Ni  Ni92  1  0.25737435  0.79171333  0.90441341  1.0
  Ni  Ni93  1  0.59070769  0.12504667  0.90441341  1.0
  Ni  Ni94  1  0.59070769  0.45838000  0.90441341  1.0
  Ni  Ni95  1  0.59070769  0.79171333  0.90441341  1.0
  Ni  Ni96  1  0.92404102  0.12504667  0.90441341  1.0
  Ni  Ni97  1  0.92404102  0.45838000  0.90441341  1.0
  Ni  Ni98  1  0.92404102  0.79171333  0.90441341  1.0
  Ni  Ni99  1  0.13972729  0.12504667  0.93382518  1.0
  Ni  Ni100  1  0.13972729  0.45838000  0.93382518  1.0
  Ni  Ni101  1  0.13972729  0.79171333  0.93382518  1.0
  Ni  Ni102  1  0.47306063  0.12504667  0.93382518  1.0
  Ni  Ni103  1  0.47306063  0.45838000  0.93382518  1.0
  Ni  Ni104  1  0.47306063  0.79171333  0.93382518  1.0
  Ni  Ni105  1  0.80639396  0.12504667  0.93382518  1.0
  Ni  Ni106  1  0.80639396  0.45838000  0.93382518  1.0
  Ni  Ni107  1  0.80639396  0.79171333  0.93382518  1.0
  Ni  Ni108  1  0.04163976  0.29160133  0.87499506  1.0
  Ni  Ni109  1  0.04163976  0.62493467  0.87499506  1.0
  Ni  Ni110  1  0.04163976  0.95826800  0.87499506  1.0
  Ni  Ni111  1  0.37497310  0.29160133  0.87499506  1.0
  Ni  Ni112  1  0.37497310  0.62493467  0.87499506  1.0
  Ni  Ni113  1  0.37497310  0.95826800  0.87499506  1.0
  Ni  Ni114  1  0.70830643  0.29160133  0.87499506  1.0
  Ni  Ni115  1  0.70830643  0.62493467  0.87499506  1.0
  Ni  Ni116  1  0.70830643  0.95826800  0.87499506  1.0
  Ni  Ni117  1  0.15928682  0.29160133  0.84558329  1.0
  Ni  Ni118  1  0.15928682  0.62493467  0.84558329  1.0
  Ni  Ni119  1  0.15928682  0.95826800  0.84558329  1.0
  Ni  Ni120  1  0.49262016  0.29160133  0.84558329  1.0
  Ni  Ni121  1  0.49262016  0.62493467  0.84558329  1.0
  Ni  Ni122  1  0.49262016  0.95826800  0.84558329  1.0
  Ni  Ni123  1  0.82595349  0.29160133  0.84558329  1.0
  Ni  Ni124  1  0.82595349  0.62493467  0.84558329  1.0
  Ni  Ni125  1  0.82595349  0.95826800  0.84558329  1.0
  Ni  Ni126  1  0.05146784  0.20832400  0.83088071  1.0
  Ni  Ni127  1  0.05146784  0.54165733  0.83088071  1.0
  Ni  Ni128  1  0.05146784  0.87499067  0.83088071  1.0
  Ni  Ni129  1  0.38480118  0.20832400  0.83088071  1.0
  Ni  Ni130  1  0.38480118  0.54165733  0.83088071  1.0
  Ni  Ni131  1  0.38480118  0.87499067  0.83088071  1.0
  Ni  Ni132  1  0.71813451  0.20832400  0.83088071  1.0
  Ni  Ni133  1  0.71813451  0.54165733  0.83088071  1.0
  Ni  Ni134  1  0.71813451  0.87499067  0.83088071  1.0
  Ni  Ni135  1  0.26715412  0.20832400  0.86029247  1.0
  Ni  Ni136  1  0.26715412  0.54165733  0.86029247  1.0
  Ni  Ni137  1  0.26715412  0.87499067  0.86029247  1.0
  Ni  Ni138  1  0.60048745  0.20832400  0.86029247  1.0
  Ni  Ni139  1  0.60048745  0.54165733  0.86029247  1.0
  Ni  Ni140  1  0.60048745  0.87499067  0.86029247  1.0
  Ni  Ni141  1  0.93382078  0.20832400  0.86029247  1.0
  Ni  Ni142  1  0.93382078  0.54165733  0.86029247  1.0
  Ni  Ni143  1  0.93382078  0.87499067  0.86029247  1.0
  Ni  Ni144  1  0.15933514  0.12504667  0.84558988  1.0
  Ni  Ni145  1  0.15933514  0.45838000  0.84558988  1.0
  Ni  Ni146  1  0.15933514  0.79171333  0.84558988  1.0
  Ni  Ni147  1  0.49266847  0.12504667  0.84558988  1.0
  Ni  Ni148  1  0.49266847  0.45838000  0.84558988  1.0
  Ni  Ni149  1  0.49266847  0.79171333  0.84558988  1.0
  Ni  Ni150  1  0.82600180  0.12504667  0.84558988  1.0
  Ni  Ni151  1  0.82600180  0.45838000  0.84558988  1.0
  Ni  Ni152  1  0.82600180  0.79171333  0.84558988  1.0
  Ni  Ni153  1  0.04168808  0.12504667  0.87500165  1.0
  Ni  Ni154  1  0.04168808  0.45838000  0.87500165  1.0
  Ni  Ni155  1  0.04168808  0.79171333  0.87500165  1.0
  Ni  Ni156  1  0.37502141  0.12504667  0.87500165  1.0
  Ni  Ni157  1  0.37502141  0.45838000  0.87500165  1.0
  Ni  Ni158  1  0.37502141  0.79171333  0.87500165  1.0
  Ni  Ni159  1  0.70835475  0.12504667  0.87500165  1.0
  Ni  Ni160  1  0.70835475  0.45838000  0.87500165  1.0
  Ni  Ni161  1  0.70835475  0.79171333  0.87500165  1.0
  Ni  Ni162  1  0.27693388  0.29160133  0.81617153  1.0
  Ni  Ni163  1  0.27693388  0.62493467  0.81617153  1.0
  Ni  Ni164  1  0.27693388  0.95826800  0.81617153  1.0
  Ni  Ni165  1  0.61026722  0.29160133  0.81617153  1.0
  Ni  Ni166  1  0.61026722  0.62493467  0.81617153  1.0
  Ni  Ni167  1  0.61026722  0.95826800  0.81617153  1.0
  Ni  Ni168  1  0.94360055  0.29160133  0.81617153  1.0
  Ni  Ni169  1  0.94360055  0.62493467  0.81617153  1.0
  Ni  Ni170  1  0.94360055  0.95826800  0.81617153  1.0
  Ni  Ni171  1  0.06124761  0.29160133  0.78675976  1.0
  Ni  Ni172  1  0.06124761  0.62493467  0.78675976  1.0
  Ni  Ni173  1  0.06124761  0.95826800  0.78675976  1.0
  Ni  Ni174  1  0.39458094  0.29160133  0.78675976  1.0
  Ni  Ni175  1  0.39458094  0.62493467  0.78675976  1.0
  Ni  Ni176  1  0.39458094  0.95826800  0.78675976  1.0
  Ni  Ni177  1  0.72791427  0.29160133  0.78675976  1.0
  Ni  Ni178  1  0.72791427  0.62493467  0.78675976  1.0
  Ni  Ni179  1  0.72791427  0.95826800  0.78675976  1.0
  Ni  Ni180  1  0.28676196  0.20832400  0.77205718  1.0
  Ni  Ni181  1  0.28676196  0.54165733  0.77205718  1.0
  Ni  Ni182  1  0.28676196  0.87499067  0.77205718  1.0
  Ni  Ni183  1  0.62009529  0.20832400  0.77205718  1.0
  Ni  Ni184  1  0.62009529  0.54165733  0.77205718  1.0
  Ni  Ni185  1  0.62009529  0.87499067  0.77205718  1.0
  Ni  Ni186  1  0.95342863  0.20832400  0.77205718  1.0
  Ni  Ni187  1  0.95342863  0.54165733  0.77205718  1.0
  Ni  Ni188  1  0.95342863  0.87499067  0.77205718  1.0
  Ni  Ni189  1  0.16911490  0.20832400  0.80146894  1.0
  Ni  Ni190  1  0.16911490  0.54165733  0.80146894  1.0
  Ni  Ni191  1  0.16911490  0.87499067  0.80146894  1.0
  Ni  Ni192  1  0.50244824  0.20832400  0.80146894  1.0
  Ni  Ni193  1  0.50244824  0.54165733  0.80146894  1.0
  Ni  Ni194  1  0.50244824  0.87499067  0.80146894  1.0
  Ni  Ni195  1  0.83578157  0.20832400  0.80146894  1.0
  Ni  Ni196  1  0.83578157  0.54165733  0.80146894  1.0
  Ni  Ni197  1  0.83578157  0.87499067  0.80146894  1.0
  Ni  Ni198  1  0.06129592  0.12504667  0.78676635  1.0
  Ni  Ni199  1  0.06129592  0.45838000  0.78676635  1.0
  Ni  Ni200  1  0.06129592  0.79171333  0.78676635  1.0
  Ni  Ni201  1  0.39462925  0.12504667  0.78676635  1.0
  Ni  Ni202  1  0.39462925  0.45838000  0.78676635  1.0
  Ni  Ni203  1  0.39462925  0.79171333  0.78676635  1.0
  Ni  Ni204  1  0.72796259  0.12504667  0.78676635  1.0
  Ni  Ni205  1  0.72796259  0.45838000  0.78676635  1.0
  Ni  Ni206  1  0.72796259  0.79171333  0.78676635  1.0
  Ni  Ni207  1  0.27698220  0.12504667  0.81617812  1.0
  Ni  Ni208  1  0.27698220  0.45838000  0.81617812  1.0
  Ni  Ni209  1  0.27698220  0.79171333  0.81617812  1.0
  Ni  Ni210  1  0.61031553  0.12504667  0.81617812  1.0
  Ni  Ni211  1  0.61031553  0.45838000  0.81617812  1.0
  Ni  Ni212  1  0.61031553  0.79171333  0.81617812  1.0
  Ni  Ni213  1  0.94364886  0.12504667  0.81617812  1.0
  Ni  Ni214  1  0.94364886  0.45838000  0.81617812  1.0
  Ni  Ni215  1  0.94364886  0.79171333  0.81617812  1.0
  Ni  Ni216  1  0.17889467  0.29160133  0.75734800  1.0
  Ni  Ni217  1  0.17889467  0.62493467  0.75734800  1.0
  Ni  Ni218  1  0.17889467  0.95826800  0.75734800  1.0
  Ni  Ni219  1  0.51222800  0.29160133  0.75734800  1.0
  Ni  Ni220  1  0.51222800  0.62493467  0.75734800  1.0
  Ni  Ni221  1  0.51222800  0.95826800  0.75734800  1.0
  Ni  Ni222  1  0.84556133  0.29160133  0.75734800  1.0
  Ni  Ni223  1  0.84556133  0.62493467  0.75734800  1.0
  Ni  Ni224  1  0.84556133  0.95826800  0.75734800  1.0
  Ni  Ni225  1  0.29654173  0.29160133  0.72793624  1.0
  Ni  Ni226  1  0.29654173  0.62493467  0.72793624  1.0
  Ni  Ni227  1  0.29654173  0.95826800  0.72793624  1.0
  Ni  Ni228  1  0.62987506  0.29160133  0.72793624  1.0
  Ni  Ni229  1  0.62987506  0.62493467  0.72793624  1.0
  Ni  Ni230  1  0.62987506  0.95826800  0.72793624  1.0
  Ni  Ni231  1  0.96320839  0.29160133  0.72793624  1.0
  Ni  Ni232  1  0.96320839  0.62493467  0.72793624  1.0
  Ni  Ni233  1  0.96320839  0.95826800  0.72793624  1.0
  Ni  Ni234  1  0.18872275  0.20832400  0.71323365  1.0
  Ni  Ni235  1  0.18872275  0.54165733  0.71323365  1.0
  Ni  Ni236  1  0.18872275  0.87499067  0.71323365  1.0
  Ni  Ni237  1  0.52205608  0.20832400  0.71323365  1.0
  Ni  Ni238  1  0.52205608  0.54165733  0.71323365  1.0
  Ni  Ni239  1  0.52205608  0.87499067  0.71323365  1.0
  Ni  Ni240  1  0.85538941  0.20832400  0.71323365  1.0
  Ni  Ni241  1  0.85538941  0.54165733  0.71323365  1.0
  Ni  Ni242  1  0.85538941  0.87499067  0.71323365  1.0
  Ni  Ni243  1  0.07107569  0.20832400  0.74264541  1.0
  Ni  Ni244  1  0.07107569  0.54165733  0.74264541  1.0
  Ni  Ni245  1  0.07107569  0.87499067  0.74264541  1.0
  Ni  Ni246  1  0.40440902  0.20832400  0.74264541  1.0
  Ni  Ni247  1  0.40440902  0.54165733  0.74264541  1.0
  Ni  Ni248  1  0.40440902  0.87499067  0.74264541  1.0
  Ni  Ni249  1  0.73774235  0.20832400  0.74264541  1.0
  Ni  Ni250  1  0.73774235  0.54165733  0.74264541  1.0
  Ni  Ni251  1  0.73774235  0.87499067  0.74264541  1.0
  Ni  Ni252  1  0.29659004  0.12504667  0.72794282  1.0
  Ni  Ni253  1  0.29659004  0.45838000  0.72794282  1.0
  Ni  Ni254  1  0.29659004  0.79171333  0.72794282  1.0
  Ni  Ni255  1  0.62992337  0.12504667  0.72794282  1.0
  Ni  Ni256  1  0.62992337  0.45838000  0.72794282  1.0
  Ni  Ni257  1  0.62992337  0.79171333  0.72794282  1.0
  Ni  Ni258  1  0.96325671  0.12504667  0.72794282  1.0
  Ni  Ni259  1  0.96325671  0.45838000  0.72794282  1.0
  Ni  Ni260  1  0.96325671  0.79171333  0.72794282  1.0
  Ni  Ni261  1  0.17894298  0.12504667  0.75735459  1.0
  Ni  Ni262  1  0.17894298  0.45838000  0.75735459  1.0
  Ni  Ni263  1  0.17894298  0.79171333  0.75735459  1.0
  Ni  Ni264  1  0.51227631  0.12504667  0.75735459  1.0
  Ni  Ni265  1  0.51227631  0.45838000  0.75735459  1.0
  Ni  Ni266  1  0.51227631  0.79171333  0.75735459  1.0
  Ni  Ni267  1  0.84560965  0.12504667  0.75735459  1.0
  Ni  Ni268  1  0.84560965  0.45838000  0.75735459  1.0
  Ni  Ni269  1  0.84560965  0.79171333  0.75735459  1.0
  Ni  Ni270  1  0.08085545  0.29160133  0.69852447  1.0
  Ni  Ni271  1  0.08085545  0.62493467  0.69852447  1.0
  Ni  Ni272  1  0.08085545  0.95826800  0.69852447  1.0
  Ni  Ni273  1  0.41418878  0.29160133  0.69852447  1.0
  Ni  Ni274  1  0.41418878  0.62493467  0.69852447  1.0
  Ni  Ni275  1  0.41418878  0.95826800  0.69852447  1.0
  Ni  Ni276  1  0.74752212  0.29160133  0.69852447  1.0
  Ni  Ni277  1  0.74752212  0.62493467  0.69852447  1.0
  Ni  Ni278  1  0.74752212  0.95826800  0.69852447  1.0
  Ni  Ni279  1  0.19850251  0.29160133  0.66911271  1.0
  Ni  Ni280  1  0.19850251  0.62493467  0.66911271  1.0
  Ni  Ni281  1  0.19850251  0.95826800  0.66911271  1.0
  Ni  Ni282  1  0.53183584  0.29160133  0.66911271  1.0
  Ni  Ni283  1  0.53183584  0.62493467  0.66911271  1.0
  Ni  Ni284  1  0.53183584  0.95826800  0.66911271  1.0
  Ni  Ni285  1  0.86516918  0.29160133  0.66911271  1.0
  Ni  Ni286  1  0.86516918  0.62493467  0.66911271  1.0
  Ni  Ni287  1  0.86516918  0.95826800  0.66911271  1.0
  Ni  Ni288  1  0.09068353  0.20832400  0.65441012  1.0
  Ni  Ni289  1  0.09068353  0.54165733  0.65441012  1.0
  Ni  Ni290  1  0.09068353  0.87499067  0.65441012  1.0
  Ni  Ni291  1  0.42401686  0.20832400  0.65441012  1.0
  Ni  Ni292  1  0.42401686  0.54165733  0.65441012  1.0
  Ni  Ni293  1  0.42401686  0.87499067  0.65441012  1.0
  Ni  Ni294  1  0.75735020  0.20832400  0.65441012  1.0
  Ni  Ni295  1  0.75735020  0.54165733  0.65441012  1.0
  Ni  Ni296  1  0.75735020  0.87499067  0.65441012  1.0
  Ni  Ni297  1  0.30636980  0.20832400  0.68382188  1.0
  Ni  Ni298  1  0.30636980  0.54165733  0.68382188  1.0
  Ni  Ni299  1  0.30636980  0.87499067  0.68382188  1.0
  Ni  Ni300  1  0.63970314  0.20832400  0.68382188  1.0
  Ni  Ni301  1  0.63970314  0.54165733  0.68382188  1.0
  Ni  Ni302  1  0.63970314  0.87499067  0.68382188  1.0
  Ni  Ni303  1  0.97303647  0.20832400  0.68382188  1.0
  Ni  Ni304  1  0.97303647  0.54165733  0.68382188  1.0
  Ni  Ni305  1  0.97303647  0.87499067  0.68382188  1.0
  Ni  Ni306  1  0.19855082  0.12504667  0.66911929  1.0
  Ni  Ni307  1  0.19855082  0.45838000  0.66911929  1.0
  Ni  Ni308  1  0.19855082  0.79171333  0.66911929  1.0
  Ni  Ni309  1  0.53188416  0.12504667  0.66911929  1.0
  Ni  Ni310  1  0.53188416  0.45838000  0.66911929  1.0
  Ni  Ni311  1  0.53188416  0.79171333  0.66911929  1.0
  Ni  Ni312  1  0.86521749  0.12504667  0.66911929  1.0
  Ni  Ni313  1  0.86521749  0.45838000  0.66911929  1.0
  Ni  Ni314  1  0.86521749  0.79171333  0.66911929  1.0
  Ni  Ni315  1  0.08090376  0.12504667  0.69853106  1.0
  Ni  Ni316  1  0.08090376  0.45838000  0.69853106  1.0
  Ni  Ni317  1  0.08090376  0.79171333  0.69853106  1.0
  Ni  Ni318  1  0.41423710  0.12504667  0.69853106  1.0
  Ni  Ni319  1  0.41423710  0.45838000  0.69853106  1.0
  Ni  Ni320  1  0.41423710  0.79171333  0.69853106  1.0
  Ni  Ni321  1  0.74757043  0.12504667  0.69853106  1.0
  Ni  Ni322  1  0.74757043  0.45838000  0.69853106  1.0
  Ni  Ni323  1  0.74757043  0.79171333  0.69853106  1.0
  Ni  Ni324  1  0.31614957  0.29160133  0.63970094  1.0
  Ni  Ni325  1  0.31614957  0.62493467  0.63970094  1.0
  Ni  Ni326  1  0.31614957  0.95826800  0.63970094  1.0
  Ni  Ni327  1  0.64948290  0.29160133  0.63970094  1.0
  Ni  Ni328  1  0.64948290  0.62493467  0.63970094  1.0
  Ni  Ni329  1  0.64948290  0.95826800  0.63970094  1.0
  Ni  Ni330  1  0.98281624  0.29160133  0.63970094  1.0
  Ni  Ni331  1  0.98281624  0.62493467  0.63970094  1.0
  Ni  Ni332  1  0.98281624  0.95826800  0.63970094  1.0
  Ni  Ni333  1  0.10046329  0.29160133  0.61028918  1.0
  Ni  Ni334  1  0.10046329  0.62493467  0.61028918  1.0
  Ni  Ni335  1  0.10046329  0.95826800  0.61028918  1.0
  Ni  Ni336  1  0.43379663  0.29160133  0.61028918  1.0
  Ni  Ni337  1  0.43379663  0.62493467  0.61028918  1.0
  Ni  Ni338  1  0.43379663  0.95826800  0.61028918  1.0
  Ni  Ni339  1  0.76712996  0.29160133  0.61028918  1.0
  Ni  Ni340  1  0.76712996  0.62493467  0.61028918  1.0
  Ni  Ni341  1  0.76712996  0.95826800  0.61028918  1.0
  Ni  Ni342  1  0.32597765  0.20832400  0.59558659  1.0
  Ni  Ni343  1  0.32597765  0.54165733  0.59558659  1.0
  Ni  Ni344  1  0.32597765  0.87499067  0.59558659  1.0
  Ni  Ni345  1  0.65931098  0.20832400  0.59558659  1.0
  Ni  Ni346  1  0.65931098  0.54165733  0.59558659  1.0
  Ni  Ni347  1  0.65931098  0.87499067  0.59558659  1.0
  Ni  Ni348  1  0.99264431  0.20832400  0.59558659  1.0
  Ni  Ni349  1  0.99264431  0.54165733  0.59558659  1.0
  Ni  Ni350  1  0.99264431  0.87499067  0.59558659  1.0
  Ni  Ni351  1  0.20833059  0.20832400  0.62499835  1.0
  Ni  Ni352  1  0.20833059  0.54165733  0.62499835  1.0
  Ni  Ni353  1  0.20833059  0.87499067  0.62499835  1.0
  Ni  Ni354  1  0.54166392  0.20832400  0.62499835  1.0
  Ni  Ni355  1  0.54166392  0.54165733  0.62499835  1.0
  Ni  Ni356  1  0.54166392  0.87499067  0.62499835  1.0
  Ni  Ni357  1  0.87499725  0.20832400  0.62499835  1.0
  Ni  Ni358  1  0.87499725  0.54165733  0.62499835  1.0
  Ni  Ni359  1  0.87499725  0.87499067  0.62499835  1.0
  Ni  Ni360  1  0.10051161  0.12504667  0.61029576  1.0
  Ni  Ni361  1  0.10051161  0.45838000  0.61029576  1.0
  Ni  Ni362  1  0.10051161  0.79171333  0.61029576  1.0
  Ni  Ni363  1  0.43384494  0.12504667  0.61029576  1.0
  Ni  Ni364  1  0.43384494  0.45838000  0.61029576  1.0
  Ni  Ni365  1  0.43384494  0.79171333  0.61029576  1.0
  Ni  Ni366  1  0.76717827  0.12504667  0.61029576  1.0
  Ni  Ni367  1  0.76717827  0.45838000  0.61029576  1.0
  Ni  Ni368  1  0.76717827  0.79171333  0.61029576  1.0
  Ni  Ni369  1  0.31619788  0.12504667  0.63970753  1.0
  Ni  Ni370  1  0.31619788  0.45838000  0.63970753  1.0
  Ni  Ni371  1  0.31619788  0.79171333  0.63970753  1.0
  Ni  Ni372  1  0.64953122  0.12504667  0.63970753  1.0
  Ni  Ni373  1  0.64953122  0.45838000  0.63970753  1.0
  Ni  Ni374  1  0.64953122  0.79171333  0.63970753  1.0
  Ni  Ni375  1  0.98286455  0.12504667  0.63970753  1.0
  Ni  Ni376  1  0.98286455  0.45838000  0.63970753  1.0
  Ni  Ni377  1  0.98286455  0.79171333  0.63970753  1.0
  V  V378  1  0.12989922  0.04165733  0.97793953  1.0
  V  V379  1  0.12989922  0.37499067  0.97793953  1.0
  V  V380  1  0.12989922  0.70832400  0.97793953  1.0
  V  V381  1  0.46323255  0.04165733  0.97793953  1.0
  V  V382  1  0.46323255  0.37499067  0.97793953  1.0
  V  V383  1  0.46323255  0.70832400  0.97793953  1.0
  V  V384  1  0.79656588  0.04165733  0.97793953  1.0
  V  V385  1  0.79656588  0.37499067  0.97793953  1.0
  V  V386  1  0.79656588  0.70832400  0.97793953  1.0
  V  V387  1  0.24754627  0.04165733  0.94852776  1.0
  V  V388  1  0.24754627  0.37499067  0.94852776  1.0
  V  V389  1  0.24754627  0.70832400  0.94852776  1.0
  V  V390  1  0.58087961  0.04165733  0.94852776  1.0
  V  V391  1  0.58087961  0.37499067  0.94852776  1.0
  V  V392  1  0.58087961  0.70832400  0.94852776  1.0
  V  V393  1  0.91421294  0.04165733  0.94852776  1.0
  V  V394  1  0.91421294  0.37499067  0.94852776  1.0
  V  V395  1  0.91421294  0.70832400  0.94852776  1.0
  V  V396  1  0.03186000  0.04165733  0.91911600  1.0
  V  V397  1  0.03186000  0.37499067  0.91911600  1.0
  V  V398  1  0.03186000  0.70832400  0.91911600  1.0
  V  V399  1  0.36519333  0.04165733  0.91911600  1.0
  V  V400  1  0.36519333  0.37499067  0.91911600  1.0
  V  V401  1  0.36519333  0.70832400  0.91911600  1.0
  V  V402  1  0.69852667  0.04165733  0.91911600  1.0
  V  V403  1  0.69852667  0.37499067  0.91911600  1.0
  V  V404  1  0.69852667  0.70832400  0.91911600  1.0
  V  V405  1  0.14950706  0.04165733  0.88970424  1.0
  V  V406  1  0.14950706  0.37499067  0.88970424  1.0
  V  V407  1  0.14950706  0.70832400  0.88970424  1.0
  V  V408  1  0.48284039  0.04165733  0.88970424  1.0
  V  V409  1  0.48284039  0.37499067  0.88970424  1.0
  V  V410  1  0.48284039  0.70832400  0.88970424  1.0
  V  V411  1  0.81617373  0.04165733  0.88970424  1.0
  V  V412  1  0.81617373  0.37499067  0.88970424  1.0
  V  V413  1  0.81617373  0.70832400  0.88970424  1.0
  V  V414  1  0.26715412  0.04165733  0.86029247  1.0
  V  V415  1  0.26715412  0.37499067  0.86029247  1.0
  V  V416  1  0.26715412  0.70832400  0.86029247  1.0
  V  V417  1  0.60048745  0.04165733  0.86029247  1.0
  V  V418  1  0.60048745  0.37499067  0.86029247  1.0
  V  V419  1  0.60048745  0.70832400  0.86029247  1.0
  V  V420  1  0.93382078  0.04165733  0.86029247  1.0
  V  V421  1  0.93382078  0.37499067  0.86029247  1.0
  V  V422  1  0.93382078  0.70832400  0.86029247  1.0
  V  V423  1  0.05146784  0.04165733  0.83088071  1.0
  V  V424  1  0.05146784  0.37499067  0.83088071  1.0
  V  V425  1  0.05146784  0.70832400  0.83088071  1.0
  V  V426  1  0.38480118  0.04165733  0.83088071  1.0
  V  V427  1  0.38480118  0.37499067  0.83088071  1.0
  V  V428  1  0.38480118  0.70832400  0.83088071  1.0
  V  V429  1  0.71813451  0.04165733  0.83088071  1.0
  V  V430  1  0.71813451  0.37499067  0.83088071  1.0
  V  V431  1  0.71813451  0.70832400  0.83088071  1.0
  V  V432  1  0.16911490  0.04165733  0.80146894  1.0
  V  V433  1  0.16911490  0.37499067  0.80146894  1.0
  V  V434  1  0.16911490  0.70832400  0.80146894  1.0
  V  V435  1  0.50244824  0.04165733  0.80146894  1.0
  V  V436  1  0.50244824  0.37499067  0.80146894  1.0
  V  V437  1  0.50244824  0.70832400  0.80146894  1.0
  V  V438  1  0.83578157  0.04165733  0.80146894  1.0
  V  V439  1  0.83578157  0.37499067  0.80146894  1.0
  V  V440  1  0.83578157  0.70832400  0.80146894  1.0
  V  V441  1  0.28676196  0.04165733  0.77205718  1.0
  V  V442  1  0.28676196  0.37499067  0.77205718  1.0
  V  V443  1  0.28676196  0.70832400  0.77205718  1.0
  V  V444  1  0.62009529  0.04165733  0.77205718  1.0
  V  V445  1  0.62009529  0.37499067  0.77205718  1.0
  V  V446  1  0.62009529  0.70832400  0.77205718  1.0
  V  V447  1  0.95342863  0.04165733  0.77205718  1.0
  V  V448  1  0.95342863  0.37499067  0.77205718  1.0
  V  V449  1  0.95342863  0.70832400  0.77205718  1.0
  V  V450  1  0.07107569  0.04165733  0.74264541  1.0
  V  V451  1  0.07107569  0.37499067  0.74264541  1.0
  V  V452  1  0.07107569  0.70832400  0.74264541  1.0
  V  V453  1  0.40440902  0.04165733  0.74264541  1.0
  V  V454  1  0.40440902  0.37499067  0.74264541  1.0
  V  V455  1  0.40440902  0.70832400  0.74264541  1.0
  V  V456  1  0.73774235  0.04165733  0.74264541  1.0
  V  V457  1  0.73774235  0.37499067  0.74264541  1.0
  V  V458  1  0.73774235  0.70832400  0.74264541  1.0
  V  V459  1  0.18872275  0.04165733  0.71323365  1.0
  V  V460  1  0.18872275  0.37499067  0.71323365  1.0
  V  V461  1  0.18872275  0.70832400  0.71323365  1.0
  V  V462  1  0.52205608  0.04165733  0.71323365  1.0
  V  V463  1  0.52205608  0.37499067  0.71323365  1.0
  V  V464  1  0.52205608  0.70832400  0.71323365  1.0
  V  V465  1  0.85538941  0.04165733  0.71323365  1.0
  V  V466  1  0.85538941  0.37499067  0.71323365  1.0
  V  V467  1  0.85538941  0.70832400  0.71323365  1.0
  V  V468  1  0.30636980  0.04165733  0.68382188  1.0
  V  V469  1  0.30636980  0.37499067  0.68382188  1.0
  V  V470  1  0.30636980  0.70832400  0.68382188  1.0
  V  V471  1  0.63970314  0.04165733  0.68382188  1.0
  V  V472  1  0.63970314  0.37499067  0.68382188  1.0
  V  V473  1  0.63970314  0.70832400  0.68382188  1.0
  V  V474  1  0.97303647  0.04165733  0.68382188  1.0
  V  V475  1  0.97303647  0.37499067  0.68382188  1.0
  V  V476  1  0.97303647  0.70832400  0.68382188  1.0
  V  V477  1  0.09068353  0.04165733  0.65441012  1.0
  V  V478  1  0.09068353  0.37499067  0.65441012  1.0
  V  V479  1  0.09068353  0.70832400  0.65441012  1.0
  V  V480  1  0.42401686  0.04165733  0.65441012  1.0
  V  V481  1  0.42401686  0.37499067  0.65441012  1.0
  V  V482  1  0.42401686  0.70832400  0.65441012  1.0
  V  V483  1  0.75735020  0.04165733  0.65441012  1.0
  V  V484  1  0.75735020  0.37499067  0.65441012  1.0
  V  V485  1  0.75735020  0.70832400  0.65441012  1.0
  V  V486  1  0.20833059  0.04165733  0.62499835  1.0
  V  V487  1  0.20833059  0.37499067  0.62499835  1.0
  V  V488  1  0.20833059  0.70832400  0.62499835  1.0
  V  V489  1  0.54166392  0.04165733  0.62499835  1.0
  V  V490  1  0.54166392  0.37499067  0.62499835  1.0
  V  V491  1  0.54166392  0.70832400  0.62499835  1.0
  V  V492  1  0.87499725  0.04165733  0.62499835  1.0
  V  V493  1  0.87499725  0.37499067  0.62499835  1.0
  V  V494  1  0.87499725  0.70832400  0.62499835  1.0
  V  V495  1  0.32597765  0.04165733  0.59558659  1.0
  V  V496  1  0.32597765  0.37499067  0.59558659  1.0
  V  V497  1  0.32597765  0.70832400  0.59558659  1.0
  V  V498  1  0.65931098  0.04165733  0.59558659  1.0
  V  V499  1  0.65931098  0.37499067  0.59558659  1.0
  V  V500  1  0.65931098  0.70832400  0.59558659  1.0
  V  V501  1  0.99264431  0.04165733  0.59558659  1.0
  V  V502  1  0.99264431  0.37499067  0.59558659  1.0
  V  V503  1  0.99264431  0.70832400  0.59558659  1.0
