# generated using pymatgen
data_VNi3
_symmetry_space_group_name_H-M   'P 1'
_cell_length_a   16.90794751
_cell_length_b   22.66559913
_cell_length_c   26.90968817
_cell_angle_alpha   95.35213544
_cell_angle_beta   92.40071543
_cell_angle_gamma   107.36090428
_symmetry_Int_Tables_number   1
_chemical_formula_structural   VNi3
_chemical_formula_sum   'V90 Ni270'
_cell_volume   9773.44497965
_cell_formula_units_Z   90
loop_
 _symmetry_equiv_pos_site_id
 _symmetry_equiv_pos_as_xyz
  1  'x, y, z'
loop_
 _atom_site_type_symbol
 _atom_site_label
 _atom_site_symmetry_multiplicity
 _atom_site_fract_x
 _atom_site_fract_y
 _atom_site_fract_z
 _atom_site_occupancy
  Ni  Ni0  1  0.13064875  0.08605514  0.00514542  1.0
  Ni  Ni1  1  0.13064875  0.41938847  0.00514542  1.0
  Ni  Ni2  1  0.13064875  0.75272181  0.00514542  1.0
  Ni  Ni3  1  0.46398208  0.08605514  0.00514542  1.0
  Ni  Ni4  1  0.46398208  0.41938847  0.00514542  1.0
  Ni  Ni5  1  0.46398208  0.75272181  0.00514542  1.0
  Ni  Ni6  1  0.79731542  0.08605514  0.00514542  1.0
  Ni  Ni7  1  0.79731542  0.41938847  0.00514542  1.0
  Ni  Ni8  1  0.79731542  0.75272181  0.00514542  1.0
  Ni  Ni9  1  0.00564875  0.09994403  0.04681208  1.0
  Ni  Ni10  1  0.00564875  0.43327736  0.04681208  1.0
  Ni  Ni11  1  0.00564875  0.76661069  0.04681208  1.0
  Ni  Ni12  1  0.33898208  0.09994403  0.04681208  1.0
  Ni  Ni13  1  0.33898208  0.43327736  0.04681208  1.0
  Ni  Ni14  1  0.33898208  0.76661069  0.04681208  1.0
  Ni  Ni15  1  0.67231542  0.09994403  0.04681208  1.0
  Ni  Ni16  1  0.67231542  0.43327736  0.04681208  1.0
  Ni  Ni17  1  0.67231542  0.76661069  0.04681208  1.0
  Ni  Ni18  1  0.26568792  0.17189597  0.01568792  1.0
  Ni  Ni19  1  0.26568792  0.50522931  0.01568792  1.0
  Ni  Ni20  1  0.26568792  0.83856264  0.01568792  1.0
  Ni  Ni21  1  0.59902125  0.17189597  0.01568792  1.0
  Ni  Ni22  1  0.59902125  0.50522931  0.01568792  1.0
  Ni  Ni23  1  0.59902125  0.83856264  0.01568792  1.0
  Ni  Ni24  1  0.93235458  0.17189597  0.01568792  1.0
  Ni  Ni25  1  0.93235458  0.50522931  0.01568792  1.0
  Ni  Ni26  1  0.93235458  0.83856264  0.01568792  1.0
  Ni  Ni27  1  0.14068792  0.18578486  0.05735458  1.0
  Ni  Ni28  1  0.14068792  0.51911819  0.05735458  1.0
  Ni  Ni29  1  0.14068792  0.85245153  0.05735458  1.0
  Ni  Ni30  1  0.47402125  0.18578486  0.05735458  1.0
  Ni  Ni31  1  0.47402125  0.51911819  0.05735458  1.0
  Ni  Ni32  1  0.47402125  0.85245153  0.05735458  1.0
  Ni  Ni33  1  0.80735458  0.18578486  0.05735458  1.0
  Ni  Ni34  1  0.80735458  0.51911819  0.05735458  1.0
  Ni  Ni35  1  0.80735458  0.85245153  0.05735458  1.0
  Ni  Ni36  1  0.27572708  0.27162569  0.06789708  1.0
  Ni  Ni37  1  0.27572708  0.60495903  0.06789708  1.0
  Ni  Ni38  1  0.27572708  0.93829236  0.06789708  1.0
  Ni  Ni39  1  0.60906042  0.27162569  0.06789708  1.0
  Ni  Ni40  1  0.60906042  0.60495903  0.06789708  1.0
  Ni  Ni41  1  0.60906042  0.93829236  0.06789708  1.0
  Ni  Ni42  1  0.94239375  0.27162569  0.06789708  1.0
  Ni  Ni43  1  0.94239375  0.60495903  0.06789708  1.0
  Ni  Ni44  1  0.94239375  0.93829236  0.06789708  1.0
  Ni  Ni45  1  0.06739375  0.25773681  0.02623042  1.0
  Ni  Ni46  1  0.06739375  0.59107014  0.02623042  1.0
  Ni  Ni47  1  0.06739375  0.92440347  0.02623042  1.0
  Ni  Ni48  1  0.40072708  0.25773681  0.02623042  1.0
  Ni  Ni49  1  0.40072708  0.59107014  0.02623042  1.0
  Ni  Ni50  1  0.40072708  0.92440347  0.02623042  1.0
  Ni  Ni51  1  0.73406042  0.25773681  0.02623042  1.0
  Ni  Ni52  1  0.73406042  0.59107014  0.02623042  1.0
  Ni  Ni53  1  0.73406042  0.92440347  0.02623042  1.0
  Ni  Ni54  1  0.21398208  0.11383292  0.08847875  1.0
  Ni  Ni55  1  0.21398208  0.44716625  0.08847875  1.0
  Ni  Ni56  1  0.21398208  0.78049958  0.08847875  1.0
  Ni  Ni57  1  0.54731542  0.11383292  0.08847875  1.0
  Ni  Ni58  1  0.54731542  0.44716625  0.08847875  1.0
  Ni  Ni59  1  0.54731542  0.78049958  0.08847875  1.0
  Ni  Ni60  1  0.88064875  0.11383292  0.08847875  1.0
  Ni  Ni61  1  0.88064875  0.44716625  0.08847875  1.0
  Ni  Ni62  1  0.88064875  0.78049958  0.08847875  1.0
  Ni  Ni63  1  0.08898208  0.12772181  0.13014542  1.0
  Ni  Ni64  1  0.08898208  0.46105514  0.13014542  1.0
  Ni  Ni65  1  0.08898208  0.79438847  0.13014542  1.0
  Ni  Ni66  1  0.42231542  0.12772181  0.13014542  1.0
  Ni  Ni67  1  0.42231542  0.46105514  0.13014542  1.0
  Ni  Ni68  1  0.42231542  0.79438847  0.13014542  1.0
  Ni  Ni69  1  0.75564875  0.12772181  0.13014542  1.0
  Ni  Ni70  1  0.75564875  0.46105514  0.13014542  1.0
  Ni  Ni71  1  0.75564875  0.79438847  0.13014542  1.0
  Ni  Ni72  1  0.01568792  0.19967375  0.09902125  1.0
  Ni  Ni73  1  0.01568792  0.53300708  0.09902125  1.0
  Ni  Ni74  1  0.01568792  0.86634042  0.09902125  1.0
  Ni  Ni75  1  0.34902125  0.19967375  0.09902125  1.0
  Ni  Ni76  1  0.34902125  0.53300708  0.09902125  1.0
  Ni  Ni77  1  0.34902125  0.86634042  0.09902125  1.0
  Ni  Ni78  1  0.68235458  0.19967375  0.09902125  1.0
  Ni  Ni79  1  0.68235458  0.53300708  0.09902125  1.0
  Ni  Ni80  1  0.68235458  0.86634042  0.09902125  1.0
  Ni  Ni81  1  0.22402125  0.21356264  0.14068792  1.0
  Ni  Ni82  1  0.22402125  0.54689597  0.14068792  1.0
  Ni  Ni83  1  0.22402125  0.88022931  0.14068792  1.0
  Ni  Ni84  1  0.55735458  0.21356264  0.14068792  1.0
  Ni  Ni85  1  0.55735458  0.54689597  0.14068792  1.0
  Ni  Ni86  1  0.55735458  0.88022931  0.14068792  1.0
  Ni  Ni87  1  0.89068792  0.21356264  0.14068792  1.0
  Ni  Ni88  1  0.89068792  0.54689597  0.14068792  1.0
  Ni  Ni89  1  0.89068792  0.88022931  0.14068792  1.0
  Ni  Ni90  1  0.02572708  0.29940347  0.15123042  1.0
  Ni  Ni91  1  0.02572708  0.63273681  0.15123042  1.0
  Ni  Ni92  1  0.02572708  0.96607014  0.15123042  1.0
  Ni  Ni93  1  0.35906042  0.29940347  0.15123042  1.0
  Ni  Ni94  1  0.35906042  0.63273681  0.15123042  1.0
  Ni  Ni95  1  0.35906042  0.96607014  0.15123042  1.0
  Ni  Ni96  1  0.69239375  0.29940347  0.15123042  1.0
  Ni  Ni97  1  0.69239375  0.63273681  0.15123042  1.0
  Ni  Ni98  1  0.69239375  0.96607014  0.15123042  1.0
  Ni  Ni99  1  0.15072708  0.28551458  0.10956375  1.0
  Ni  Ni100  1  0.15072708  0.61884792  0.10956375  1.0
  Ni  Ni101  1  0.15072708  0.95218125  0.10956375  1.0
  Ni  Ni102  1  0.48406042  0.28551458  0.10956375  1.0
  Ni  Ni103  1  0.48406042  0.61884792  0.10956375  1.0
  Ni  Ni104  1  0.48406042  0.95218125  0.10956375  1.0
  Ni  Ni105  1  0.81739375  0.28551458  0.10956375  1.0
  Ni  Ni106  1  0.81739375  0.61884792  0.10956375  1.0
  Ni  Ni107  1  0.81739375  0.95218125  0.10956375  1.0
  Ni  Ni108  1  0.29731542  0.14161069  0.17181208  1.0
  Ni  Ni109  1  0.29731542  0.47494403  0.17181208  1.0
  Ni  Ni110  1  0.29731542  0.80827736  0.17181208  1.0
  Ni  Ni111  1  0.63064875  0.14161069  0.17181208  1.0
  Ni  Ni112  1  0.63064875  0.47494403  0.17181208  1.0
  Ni  Ni113  1  0.63064875  0.80827736  0.17181208  1.0
  Ni  Ni114  1  0.96398208  0.14161069  0.17181208  1.0
  Ni  Ni115  1  0.96398208  0.47494403  0.17181208  1.0
  Ni  Ni116  1  0.96398208  0.80827736  0.17181208  1.0
  Ni  Ni117  1  0.17231542  0.15549958  0.21347875  1.0
  Ni  Ni118  1  0.17231542  0.48883292  0.21347875  1.0
  Ni  Ni119  1  0.17231542  0.82216625  0.21347875  1.0
  Ni  Ni120  1  0.50564875  0.15549958  0.21347875  1.0
  Ni  Ni121  1  0.50564875  0.48883292  0.21347875  1.0
  Ni  Ni122  1  0.50564875  0.82216625  0.21347875  1.0
  Ni  Ni123  1  0.83898208  0.15549958  0.21347875  1.0
  Ni  Ni124  1  0.83898208  0.48883292  0.21347875  1.0
  Ni  Ni125  1  0.83898208  0.82216625  0.21347875  1.0
  Ni  Ni126  1  0.09902125  0.22745153  0.18235458  1.0
  Ni  Ni127  1  0.09902125  0.56078486  0.18235458  1.0
  Ni  Ni128  1  0.09902125  0.89411819  0.18235458  1.0
  Ni  Ni129  1  0.43235458  0.22745153  0.18235458  1.0
  Ni  Ni130  1  0.43235458  0.56078486  0.18235458  1.0
  Ni  Ni131  1  0.43235458  0.89411819  0.18235458  1.0
  Ni  Ni132  1  0.76568792  0.22745153  0.18235458  1.0
  Ni  Ni133  1  0.76568792  0.56078486  0.18235458  1.0
  Ni  Ni134  1  0.76568792  0.89411819  0.18235458  1.0
  Ni  Ni135  1  0.30735458  0.24134042  0.22402125  1.0
  Ni  Ni136  1  0.30735458  0.57467375  0.22402125  1.0
  Ni  Ni137  1  0.30735458  0.90800708  0.22402125  1.0
  Ni  Ni138  1  0.64068792  0.24134042  0.22402125  1.0
  Ni  Ni139  1  0.64068792  0.57467375  0.22402125  1.0
  Ni  Ni140  1  0.64068792  0.90800708  0.22402125  1.0
  Ni  Ni141  1  0.97402125  0.24134042  0.22402125  1.0
  Ni  Ni142  1  0.97402125  0.57467375  0.22402125  1.0
  Ni  Ni143  1  0.97402125  0.90800708  0.22402125  1.0
  Ni  Ni144  1  0.10906042  0.32718125  0.23456375  1.0
  Ni  Ni145  1  0.10906042  0.66051458  0.23456375  1.0
  Ni  Ni146  1  0.10906042  0.99384792  0.23456375  1.0
  Ni  Ni147  1  0.44239375  0.32718125  0.23456375  1.0
  Ni  Ni148  1  0.44239375  0.66051458  0.23456375  1.0
  Ni  Ni149  1  0.44239375  0.99384792  0.23456375  1.0
  Ni  Ni150  1  0.77572708  0.32718125  0.23456375  1.0
  Ni  Ni151  1  0.77572708  0.66051458  0.23456375  1.0
  Ni  Ni152  1  0.77572708  0.99384792  0.23456375  1.0
  Ni  Ni153  1  0.23406042  0.31329236  0.19289708  1.0
  Ni  Ni154  1  0.23406042  0.64662569  0.19289708  1.0
  Ni  Ni155  1  0.23406042  0.97995903  0.19289708  1.0
  Ni  Ni156  1  0.56739375  0.31329236  0.19289708  1.0
  Ni  Ni157  1  0.56739375  0.64662569  0.19289708  1.0
  Ni  Ni158  1  0.56739375  0.97995903  0.19289708  1.0
  Ni  Ni159  1  0.90072708  0.31329236  0.19289708  1.0
  Ni  Ni160  1  0.90072708  0.64662569  0.19289708  1.0
  Ni  Ni161  1  0.90072708  0.97995903  0.19289708  1.0
  Ni  Ni162  1  0.04731542  0.16938847  0.25514542  1.0
  Ni  Ni163  1  0.04731542  0.50272181  0.25514542  1.0
  Ni  Ni164  1  0.04731542  0.83605514  0.25514542  1.0
  Ni  Ni165  1  0.38064875  0.16938847  0.25514542  1.0
  Ni  Ni166  1  0.38064875  0.50272181  0.25514542  1.0
  Ni  Ni167  1  0.38064875  0.83605514  0.25514542  1.0
  Ni  Ni168  1  0.71398208  0.16938847  0.25514542  1.0
  Ni  Ni169  1  0.71398208  0.50272181  0.25514542  1.0
  Ni  Ni170  1  0.71398208  0.83605514  0.25514542  1.0
  Ni  Ni171  1  0.25564875  0.18327736  0.29681208  1.0
  Ni  Ni172  1  0.25564875  0.51661069  0.29681208  1.0
  Ni  Ni173  1  0.25564875  0.84994403  0.29681208  1.0
  Ni  Ni174  1  0.58898208  0.18327736  0.29681208  1.0
  Ni  Ni175  1  0.58898208  0.51661069  0.29681208  1.0
  Ni  Ni176  1  0.58898208  0.84994403  0.29681208  1.0
  Ni  Ni177  1  0.92231542  0.18327736  0.29681208  1.0
  Ni  Ni178  1  0.92231542  0.51661069  0.29681208  1.0
  Ni  Ni179  1  0.92231542  0.84994403  0.29681208  1.0
  Ni  Ni180  1  0.18235458  0.25522931  0.26568792  1.0
  Ni  Ni181  1  0.18235458  0.58856264  0.26568792  1.0
  Ni  Ni182  1  0.18235458  0.92189597  0.26568792  1.0
  Ni  Ni183  1  0.51568792  0.25522931  0.26568792  1.0
  Ni  Ni184  1  0.51568792  0.58856264  0.26568792  1.0
  Ni  Ni185  1  0.51568792  0.92189597  0.26568792  1.0
  Ni  Ni186  1  0.84902125  0.25522931  0.26568792  1.0
  Ni  Ni187  1  0.84902125  0.58856264  0.26568792  1.0
  Ni  Ni188  1  0.84902125  0.92189597  0.26568792  1.0
  Ni  Ni189  1  0.05735458  0.26911819  0.30735458  1.0
  Ni  Ni190  1  0.05735458  0.60245153  0.30735458  1.0
  Ni  Ni191  1  0.05735458  0.93578486  0.30735458  1.0
  Ni  Ni192  1  0.39068792  0.26911819  0.30735458  1.0
  Ni  Ni193  1  0.39068792  0.60245153  0.30735458  1.0
  Ni  Ni194  1  0.39068792  0.93578486  0.30735458  1.0
  Ni  Ni195  1  0.72402125  0.26911819  0.30735458  1.0
  Ni  Ni196  1  0.72402125  0.60245153  0.30735458  1.0
  Ni  Ni197  1  0.72402125  0.93578486  0.30735458  1.0
  Ni  Ni198  1  0.19239375  0.02162569  0.31789708  1.0
  Ni  Ni199  1  0.19239375  0.35495903  0.31789708  1.0
  Ni  Ni200  1  0.19239375  0.68829236  0.31789708  1.0
  Ni  Ni201  1  0.52572708  0.02162569  0.31789708  1.0
  Ni  Ni202  1  0.52572708  0.35495903  0.31789708  1.0
  Ni  Ni203  1  0.52572708  0.68829236  0.31789708  1.0
  Ni  Ni204  1  0.85906042  0.02162569  0.31789708  1.0
  Ni  Ni205  1  0.85906042  0.35495903  0.31789708  1.0
  Ni  Ni206  1  0.85906042  0.68829236  0.31789708  1.0
  Ni  Ni207  1  0.31739375  0.00773681  0.27623042  1.0
  Ni  Ni208  1  0.31739375  0.34107014  0.27623042  1.0
  Ni  Ni209  1  0.31739375  0.67440347  0.27623042  1.0
  Ni  Ni210  1  0.65072708  0.00773681  0.27623042  1.0
  Ni  Ni211  1  0.65072708  0.34107014  0.27623042  1.0
  Ni  Ni212  1  0.65072708  0.67440347  0.27623042  1.0
  Ni  Ni213  1  0.98406042  0.00773681  0.27623042  1.0
  Ni  Ni214  1  0.98406042  0.34107014  0.27623042  1.0
  Ni  Ni215  1  0.98406042  0.67440347  0.27623042  1.0
  Ni  Ni216  1  0.13064875  0.19716625  0.33847875  1.0
  Ni  Ni217  1  0.13064875  0.53049958  0.33847875  1.0
  Ni  Ni218  1  0.13064875  0.86383292  0.33847875  1.0
  Ni  Ni219  1  0.46398208  0.19716625  0.33847875  1.0
  Ni  Ni220  1  0.46398208  0.53049958  0.33847875  1.0
  Ni  Ni221  1  0.46398208  0.86383292  0.33847875  1.0
  Ni  Ni222  1  0.79731542  0.19716625  0.33847875  1.0
  Ni  Ni223  1  0.79731542  0.53049958  0.33847875  1.0
  Ni  Ni224  1  0.79731542  0.86383292  0.33847875  1.0
  Ni  Ni225  1  0.00564875  0.21105514  0.38014542  1.0
  Ni  Ni226  1  0.00564875  0.54438847  0.38014542  1.0
  Ni  Ni227  1  0.00564875  0.87772181  0.38014542  1.0
  Ni  Ni228  1  0.33898208  0.21105514  0.38014542  1.0
  Ni  Ni229  1  0.33898208  0.54438847  0.38014542  1.0
  Ni  Ni230  1  0.33898208  0.87772181  0.38014542  1.0
  Ni  Ni231  1  0.67231542  0.21105514  0.38014542  1.0
  Ni  Ni232  1  0.67231542  0.54438847  0.38014542  1.0
  Ni  Ni233  1  0.67231542  0.87772181  0.38014542  1.0
  Ni  Ni234  1  0.26568792  0.28300708  0.34902125  1.0
  Ni  Ni235  1  0.26568792  0.61634042  0.34902125  1.0
  Ni  Ni236  1  0.26568792  0.94967375  0.34902125  1.0
  Ni  Ni237  1  0.59902125  0.28300708  0.34902125  1.0
  Ni  Ni238  1  0.59902125  0.61634042  0.34902125  1.0
  Ni  Ni239  1  0.59902125  0.94967375  0.34902125  1.0
  Ni  Ni240  1  0.93235458  0.28300708  0.34902125  1.0
  Ni  Ni241  1  0.93235458  0.61634042  0.34902125  1.0
  Ni  Ni242  1  0.93235458  0.94967375  0.34902125  1.0
  Ni  Ni243  1  0.14068792  0.29689597  0.39068792  1.0
  Ni  Ni244  1  0.14068792  0.63022931  0.39068792  1.0
  Ni  Ni245  1  0.14068792  0.96356264  0.39068792  1.0
  Ni  Ni246  1  0.47402125  0.29689597  0.39068792  1.0
  Ni  Ni247  1  0.47402125  0.63022931  0.39068792  1.0
  Ni  Ni248  1  0.47402125  0.96356264  0.39068792  1.0
  Ni  Ni249  1  0.80735458  0.29689597  0.39068792  1.0
  Ni  Ni250  1  0.80735458  0.63022931  0.39068792  1.0
  Ni  Ni251  1  0.80735458  0.96356264  0.39068792  1.0
  Ni  Ni252  1  0.27572708  0.04940347  0.40123042  1.0
  Ni  Ni253  1  0.27572708  0.38273681  0.40123042  1.0
  Ni  Ni254  1  0.27572708  0.71607014  0.40123042  1.0
  Ni  Ni255  1  0.60906042  0.04940347  0.40123042  1.0
  Ni  Ni256  1  0.60906042  0.38273681  0.40123042  1.0
  Ni  Ni257  1  0.60906042  0.71607014  0.40123042  1.0
  Ni  Ni258  1  0.94239375  0.04940347  0.40123042  1.0
  Ni  Ni259  1  0.94239375  0.38273681  0.40123042  1.0
  Ni  Ni260  1  0.94239375  0.71607014  0.40123042  1.0
  Ni  Ni261  1  0.06739375  0.03551458  0.35956375  1.0
  Ni  Ni262  1  0.06739375  0.36884792  0.35956375  1.0
  Ni  Ni263  1  0.06739375  0.70218125  0.35956375  1.0
  Ni  Ni264  1  0.40072708  0.03551458  0.35956375  1.0
  Ni  Ni265  1  0.40072708  0.36884792  0.35956375  1.0
  Ni  Ni266  1  0.40072708  0.70218125  0.35956375  1.0
  Ni  Ni267  1  0.73406042  0.03551458  0.35956375  1.0
  Ni  Ni268  1  0.73406042  0.36884792  0.35956375  1.0
  Ni  Ni269  1  0.73406042  0.70218125  0.35956375  1.0
  V  V270  1  0.07818792  0.02606264  0.07818792  1.0
  V  V271  1  0.07818792  0.35939597  0.07818792  1.0
  V  V272  1  0.07818792  0.69272931  0.07818792  1.0
  V  V273  1  0.41152125  0.02606264  0.07818792  1.0
  V  V274  1  0.41152125  0.35939597  0.07818792  1.0
  V  V275  1  0.41152125  0.69272931  0.07818792  1.0
  V  V276  1  0.74485458  0.02606264  0.07818792  1.0
  V  V277  1  0.74485458  0.35939597  0.07818792  1.0
  V  V278  1  0.74485458  0.69272931  0.07818792  1.0
  V  V279  1  0.20318792  0.01217375  0.03652125  1.0
  V  V280  1  0.20318792  0.34550708  0.03652125  1.0
  V  V281  1  0.20318792  0.67884042  0.03652125  1.0
  V  V282  1  0.53652125  0.01217375  0.03652125  1.0
  V  V283  1  0.53652125  0.34550708  0.03652125  1.0
  V  V284  1  0.53652125  0.67884042  0.03652125  1.0
  V  V285  1  0.86985458  0.01217375  0.03652125  1.0
  V  V286  1  0.86985458  0.34550708  0.03652125  1.0
  V  V287  1  0.86985458  0.67884042  0.03652125  1.0
  V  V288  1  0.16152125  0.05384042  0.16152125  1.0
  V  V289  1  0.16152125  0.38717375  0.16152125  1.0
  V  V290  1  0.16152125  0.72050708  0.16152125  1.0
  V  V291  1  0.49485458  0.05384042  0.16152125  1.0
  V  V292  1  0.49485458  0.38717375  0.16152125  1.0
  V  V293  1  0.49485458  0.72050708  0.16152125  1.0
  V  V294  1  0.82818792  0.05384042  0.16152125  1.0
  V  V295  1  0.82818792  0.38717375  0.16152125  1.0
  V  V296  1  0.82818792  0.72050708  0.16152125  1.0
  V  V297  1  0.28652125  0.03995153  0.11985458  1.0
  V  V298  1  0.28652125  0.37328486  0.11985458  1.0
  V  V299  1  0.28652125  0.70661819  0.11985458  1.0
  V  V300  1  0.61985458  0.03995153  0.11985458  1.0
  V  V301  1  0.61985458  0.37328486  0.11985458  1.0
  V  V302  1  0.61985458  0.70661819  0.11985458  1.0
  V  V303  1  0.95318792  0.03995153  0.11985458  1.0
  V  V304  1  0.95318792  0.37328486  0.11985458  1.0
  V  V305  1  0.95318792  0.70661819  0.11985458  1.0
  V  V306  1  0.24485458  0.08161819  0.24485458  1.0
  V  V307  1  0.24485458  0.41495153  0.24485458  1.0
  V  V308  1  0.24485458  0.74828486  0.24485458  1.0
  V  V309  1  0.57818792  0.08161819  0.24485458  1.0
  V  V310  1  0.57818792  0.41495153  0.24485458  1.0
  V  V311  1  0.57818792  0.74828486  0.24485458  1.0
  V  V312  1  0.91152125  0.08161819  0.24485458  1.0
  V  V313  1  0.91152125  0.41495153  0.24485458  1.0
  V  V314  1  0.91152125  0.74828486  0.24485458  1.0
  V  V315  1  0.03652125  0.06772931  0.20318792  1.0
  V  V316  1  0.03652125  0.40106264  0.20318792  1.0
  V  V317  1  0.03652125  0.73439597  0.20318792  1.0
  V  V318  1  0.36985458  0.06772931  0.20318792  1.0
  V  V319  1  0.36985458  0.40106264  0.20318792  1.0
  V  V320  1  0.36985458  0.73439597  0.20318792  1.0
  V  V321  1  0.70318792  0.06772931  0.20318792  1.0
  V  V322  1  0.70318792  0.40106264  0.20318792  1.0
  V  V323  1  0.70318792  0.73439597  0.20318792  1.0
  V  V324  1  0.32818792  0.10939597  0.32818792  1.0
  V  V325  1  0.32818792  0.44272931  0.32818792  1.0
  V  V326  1  0.32818792  0.77606264  0.32818792  1.0
  V  V327  1  0.66152125  0.10939597  0.32818792  1.0
  V  V328  1  0.66152125  0.44272931  0.32818792  1.0
  V  V329  1  0.66152125  0.77606264  0.32818792  1.0
  V  V330  1  0.99485458  0.10939597  0.32818792  1.0
  V  V331  1  0.99485458  0.44272931  0.32818792  1.0
  V  V332  1  0.99485458  0.77606264  0.32818792  1.0
  V  V333  1  0.11985458  0.09550708  0.28652125  1.0
  V  V334  1  0.11985458  0.42884042  0.28652125  1.0
  V  V335  1  0.11985458  0.76217375  0.28652125  1.0
  V  V336  1  0.45318792  0.09550708  0.28652125  1.0
  V  V337  1  0.45318792  0.42884042  0.28652125  1.0
  V  V338  1  0.45318792  0.76217375  0.28652125  1.0
  V  V339  1  0.78652125  0.09550708  0.28652125  1.0
  V  V340  1  0.78652125  0.42884042  0.28652125  1.0
  V  V341  1  0.78652125  0.76217375  0.28652125  1.0
  V  V342  1  0.07818792  0.13717375  0.41152125  1.0
  V  V343  1  0.07818792  0.47050708  0.41152125  1.0
  V  V344  1  0.07818792  0.80384042  0.41152125  1.0
  V  V345  1  0.41152125  0.13717375  0.41152125  1.0
  V  V346  1  0.41152125  0.47050708  0.41152125  1.0
  V  V347  1  0.41152125  0.80384042  0.41152125  1.0
  V  V348  1  0.74485458  0.13717375  0.41152125  1.0
  V  V349  1  0.74485458  0.47050708  0.41152125  1.0
  V  V350  1  0.74485458  0.80384042  0.41152125  1.0
  V  V351  1  0.20318792  0.12328486  0.36985458  1.0
  V  V352  1  0.20318792  0.45661819  0.36985458  1.0
  V  V353  1  0.20318792  0.78995153  0.36985458  1.0
  V  V354  1  0.53652125  0.12328486  0.36985458  1.0
  V  V355  1  0.53652125  0.45661819  0.36985458  1.0
  V  V356  1  0.53652125  0.78995153  0.36985458  1.0
  V  V357  1  0.86985458  0.12328486  0.36985458  1.0
  V  V358  1  0.86985458  0.45661819  0.36985458  1.0
  V  V359  1  0.86985458  0.78995153  0.36985458  1.0
