# generated using pymatgen
data_VNi3
_symmetry_space_group_name_H-M   'P 1'
_cell_length_a   27.17223782
_cell_length_b   7.53937141
_cell_length_c   58.31682339
_cell_angle_alpha   81.32496388
_cell_angle_beta   28.60441420
_cell_angle_gamma   82.02546372
_symmetry_Int_Tables_number   1
_chemical_formula_structural   VNi3
_chemical_formula_sum   'V54 Ni162'
_cell_volume   5653.74320333
_cell_formula_units_Z   54
loop_
 _symmetry_equiv_pos_site_id
 _symmetry_equiv_pos_as_xyz
  1  'x, y, z'
loop_
 _atom_site_type_symbol
 _atom_site_label
 _atom_site_symmetry_multiplicity
 _atom_site_fract_x
 _atom_site_fract_y
 _atom_site_fract_z
 _atom_site_occupancy
  V  V0  1  0.16666667  0.16666667  0.06251000  1.0
  V  V1  1  0.16666667  0.50000000  0.06251000  1.0
  V  V2  1  0.16666667  0.83333333  0.06251000  1.0
  V  V3  1  0.50000000  0.16666667  0.06251000  1.0
  V  V4  1  0.50000000  0.50000000  0.06251000  1.0
  V  V5  1  0.50000000  0.83333333  0.06251000  1.0
  V  V6  1  0.83333333  0.16666667  0.06251000  1.0
  V  V7  1  0.83333333  0.50000000  0.06251000  1.0
  V  V8  1  0.83333333  0.83333333  0.06251000  1.0
  V  V9  1  0.00000000  0.00000000  0.13393857  1.0
  V  V10  1  0.00000000  0.33333333  0.13393857  1.0
  V  V11  1  0.00000000  0.66666667  0.13393857  1.0
  V  V12  1  0.33333333  0.00000000  0.13393857  1.0
  V  V13  1  0.33333333  0.33333333  0.13393857  1.0
  V  V14  1  0.33333333  0.66666667  0.13393857  1.0
  V  V15  1  0.66666667  0.00000000  0.13393857  1.0
  V  V16  1  0.66666667  0.33333333  0.13393857  1.0
  V  V17  1  0.66666667  0.66666667  0.13393857  1.0
  Ni  Ni18  1  0.20832400  0.04169467  0.00891857  1.0
  Ni  Ni19  1  0.20832400  0.37502800  0.00891857  1.0
  Ni  Ni20  1  0.20832400  0.70836133  0.00891857  1.0
  Ni  Ni21  1  0.54165733  0.04169467  0.00891857  1.0
  Ni  Ni22  1  0.54165733  0.37502800  0.00891857  1.0
  Ni  Ni23  1  0.54165733  0.70836133  0.00891857  1.0
  Ni  Ni24  1  0.87499067  0.04169467  0.00891857  1.0
  Ni  Ni25  1  0.87499067  0.37502800  0.00891857  1.0
  Ni  Ni26  1  0.87499067  0.70836133  0.00891857  1.0
  Ni  Ni27  1  0.04165733  0.20836133  0.08034714  1.0
  Ni  Ni28  1  0.04165733  0.54169467  0.08034714  1.0
  Ni  Ni29  1  0.04165733  0.87502800  0.08034714  1.0
  Ni  Ni30  1  0.37499067  0.20836133  0.08034714  1.0
  Ni  Ni31  1  0.37499067  0.54169467  0.08034714  1.0
  Ni  Ni32  1  0.37499067  0.87502800  0.08034714  1.0
  Ni  Ni33  1  0.70832400  0.20836133  0.08034714  1.0
  Ni  Ni34  1  0.70832400  0.54169467  0.08034714  1.0
  Ni  Ni35  1  0.70832400  0.87502800  0.08034714  1.0
  Ni  Ni36  1  0.25000000  0.25000000  0.09822429  1.0
  Ni  Ni37  1  0.25000000  0.58333333  0.09822429  1.0
  Ni  Ni38  1  0.25000000  0.91666667  0.09822429  1.0
  Ni  Ni39  1  0.58333333  0.25000000  0.09822429  1.0
  Ni  Ni40  1  0.58333333  0.58333333  0.09822429  1.0
  Ni  Ni41  1  0.58333333  0.91666667  0.09822429  1.0
  Ni  Ni42  1  0.91666667  0.25000000  0.09822429  1.0
  Ni  Ni43  1  0.91666667  0.58333333  0.09822429  1.0
  Ni  Ni44  1  0.91666667  0.91666667  0.09822429  1.0
  Ni  Ni45  1  0.08333333  0.08333333  0.02679571  1.0
  Ni  Ni46  1  0.08333333  0.41666667  0.02679571  1.0
  Ni  Ni47  1  0.08333333  0.75000000  0.02679571  1.0
  Ni  Ni48  1  0.41666667  0.08333333  0.02679571  1.0
  Ni  Ni49  1  0.41666667  0.41666667  0.02679571  1.0
  Ni  Ni50  1  0.41666667  0.75000000  0.02679571  1.0
  Ni  Ni51  1  0.75000000  0.08333333  0.02679571  1.0
  Ni  Ni52  1  0.75000000  0.41666667  0.02679571  1.0
  Ni  Ni53  1  0.75000000  0.75000000  0.02679571  1.0
  Ni  Ni54  1  0.29167600  0.12497200  0.04467286  1.0
  Ni  Ni55  1  0.29167600  0.45830533  0.04467286  1.0
  Ni  Ni56  1  0.29167600  0.79163867  0.04467286  1.0
  Ni  Ni57  1  0.62500933  0.12497200  0.04467286  1.0
  Ni  Ni58  1  0.62500933  0.45830533  0.04467286  1.0
  Ni  Ni59  1  0.62500933  0.79163867  0.04467286  1.0
  Ni  Ni60  1  0.95834267  0.12497200  0.04467286  1.0
  Ni  Ni61  1  0.95834267  0.45830533  0.04467286  1.0
  Ni  Ni62  1  0.95834267  0.79163867  0.04467286  1.0
  Ni  Ni63  1  0.12500933  0.29163867  0.11610143  1.0
  Ni  Ni64  1  0.12500933  0.62497200  0.11610143  1.0
  Ni  Ni65  1  0.12500933  0.95830533  0.11610143  1.0
  Ni  Ni66  1  0.45834267  0.29163867  0.11610143  1.0
  Ni  Ni67  1  0.45834267  0.62497200  0.11610143  1.0
  Ni  Ni68  1  0.45834267  0.95830533  0.11610143  1.0
  Ni  Ni69  1  0.79167600  0.29163867  0.11610143  1.0
  Ni  Ni70  1  0.79167600  0.62497200  0.11610143  1.0
  Ni  Ni71  1  0.79167600  0.95830533  0.11610143  1.0
  V  V72  1  0.16666667  0.16666667  0.20536714  1.0
  V  V73  1  0.16666667  0.50000000  0.20536714  1.0
  V  V74  1  0.16666667  0.83333333  0.20536714  1.0
  V  V75  1  0.50000000  0.16666667  0.20536714  1.0
  V  V76  1  0.50000000  0.50000000  0.20536714  1.0
  V  V77  1  0.50000000  0.83333333  0.20536714  1.0
  V  V78  1  0.83333333  0.16666667  0.20536714  1.0
  V  V79  1  0.83333333  0.50000000  0.20536714  1.0
  V  V80  1  0.83333333  0.83333333  0.20536714  1.0
  V  V81  1  0.00000000  0.00000000  0.27679571  1.0
  V  V82  1  0.00000000  0.33333333  0.27679571  1.0
  V  V83  1  0.00000000  0.66666667  0.27679571  1.0
  V  V84  1  0.33333333  0.00000000  0.27679571  1.0
  V  V85  1  0.33333333  0.33333333  0.27679571  1.0
  V  V86  1  0.33333333  0.66666667  0.27679571  1.0
  V  V87  1  0.66666667  0.00000000  0.27679571  1.0
  V  V88  1  0.66666667  0.33333333  0.27679571  1.0
  V  V89  1  0.66666667  0.66666667  0.27679571  1.0
  Ni  Ni90  1  0.20832400  0.04169467  0.15177571  1.0
  Ni  Ni91  1  0.20832400  0.37502800  0.15177571  1.0
  Ni  Ni92  1  0.20832400  0.70836133  0.15177571  1.0
  Ni  Ni93  1  0.54165733  0.04169467  0.15177571  1.0
  Ni  Ni94  1  0.54165733  0.37502800  0.15177571  1.0
  Ni  Ni95  1  0.54165733  0.70836133  0.15177571  1.0
  Ni  Ni96  1  0.87499067  0.04169467  0.15177571  1.0
  Ni  Ni97  1  0.87499067  0.37502800  0.15177571  1.0
  Ni  Ni98  1  0.87499067  0.70836133  0.15177571  1.0
  Ni  Ni99  1  0.04165733  0.20836133  0.22320429  1.0
  Ni  Ni100  1  0.04165733  0.54169467  0.22320429  1.0
  Ni  Ni101  1  0.04165733  0.87502800  0.22320429  1.0
  Ni  Ni102  1  0.37499067  0.20836133  0.22320429  1.0
  Ni  Ni103  1  0.37499067  0.54169467  0.22320429  1.0
  Ni  Ni104  1  0.37499067  0.87502800  0.22320429  1.0
  Ni  Ni105  1  0.70832400  0.20836133  0.22320429  1.0
  Ni  Ni106  1  0.70832400  0.54169467  0.22320429  1.0
  Ni  Ni107  1  0.70832400  0.87502800  0.22320429  1.0
  Ni  Ni108  1  0.25000000  0.25000000  0.24108143  1.0
  Ni  Ni109  1  0.25000000  0.58333333  0.24108143  1.0
  Ni  Ni110  1  0.25000000  0.91666667  0.24108143  1.0
  Ni  Ni111  1  0.58333333  0.25000000  0.24108143  1.0
  Ni  Ni112  1  0.58333333  0.58333333  0.24108143  1.0
  Ni  Ni113  1  0.58333333  0.91666667  0.24108143  1.0
  Ni  Ni114  1  0.91666667  0.25000000  0.24108143  1.0
  Ni  Ni115  1  0.91666667  0.58333333  0.24108143  1.0
  Ni  Ni116  1  0.91666667  0.91666667  0.24108143  1.0
  Ni  Ni117  1  0.08333333  0.08333333  0.16965286  1.0
  Ni  Ni118  1  0.08333333  0.41666667  0.16965286  1.0
  Ni  Ni119  1  0.08333333  0.75000000  0.16965286  1.0
  Ni  Ni120  1  0.41666667  0.08333333  0.16965286  1.0
  Ni  Ni121  1  0.41666667  0.41666667  0.16965286  1.0
  Ni  Ni122  1  0.41666667  0.75000000  0.16965286  1.0
  Ni  Ni123  1  0.75000000  0.08333333  0.16965286  1.0
  Ni  Ni124  1  0.75000000  0.41666667  0.16965286  1.0
  Ni  Ni125  1  0.75000000  0.75000000  0.16965286  1.0
  Ni  Ni126  1  0.29167600  0.12497200  0.18753000  1.0
  Ni  Ni127  1  0.29167600  0.45830533  0.18753000  1.0
  Ni  Ni128  1  0.29167600  0.79163867  0.18753000  1.0
  Ni  Ni129  1  0.62500933  0.12497200  0.18753000  1.0
  Ni  Ni130  1  0.62500933  0.45830533  0.18753000  1.0
  Ni  Ni131  1  0.62500933  0.79163867  0.18753000  1.0
  Ni  Ni132  1  0.95834267  0.12497200  0.18753000  1.0
  Ni  Ni133  1  0.95834267  0.45830533  0.18753000  1.0
  Ni  Ni134  1  0.95834267  0.79163867  0.18753000  1.0
  Ni  Ni135  1  0.12500933  0.29163867  0.25895857  1.0
  Ni  Ni136  1  0.12500933  0.62497200  0.25895857  1.0
  Ni  Ni137  1  0.12500933  0.95830533  0.25895857  1.0
  Ni  Ni138  1  0.45834267  0.29163867  0.25895857  1.0
  Ni  Ni139  1  0.45834267  0.62497200  0.25895857  1.0
  Ni  Ni140  1  0.45834267  0.95830533  0.25895857  1.0
  Ni  Ni141  1  0.79167600  0.29163867  0.25895857  1.0
  Ni  Ni142  1  0.79167600  0.62497200  0.25895857  1.0
  Ni  Ni143  1  0.79167600  0.95830533  0.25895857  1.0
  V  V144  1  0.16666667  0.16666667  0.34822429  1.0
  V  V145  1  0.16666667  0.50000000  0.34822429  1.0
  V  V146  1  0.16666667  0.83333333  0.34822429  1.0
  V  V147  1  0.50000000  0.16666667  0.34822429  1.0
  V  V148  1  0.50000000  0.50000000  0.34822429  1.0
  V  V149  1  0.50000000  0.83333333  0.34822429  1.0
  V  V150  1  0.83333333  0.16666667  0.34822429  1.0
  V  V151  1  0.83333333  0.50000000  0.34822429  1.0
  V  V152  1  0.83333333  0.83333333  0.34822429  1.0
  V  V153  1  0.00000000  0.00000000  0.41965286  1.0
  V  V154  1  0.00000000  0.33333333  0.41965286  1.0
  V  V155  1  0.00000000  0.66666667  0.41965286  1.0
  V  V156  1  0.33333333  0.00000000  0.41965286  1.0
  V  V157  1  0.33333333  0.33333333  0.41965286  1.0
  V  V158  1  0.33333333  0.66666667  0.41965286  1.0
  V  V159  1  0.66666667  0.00000000  0.41965286  1.0
  V  V160  1  0.66666667  0.33333333  0.41965286  1.0
  V  V161  1  0.66666667  0.66666667  0.41965286  1.0
  Ni  Ni162  1  0.20832400  0.04169467  0.29463286  1.0
  Ni  Ni163  1  0.20832400  0.37502800  0.29463286  1.0
  Ni  Ni164  1  0.20832400  0.70836133  0.29463286  1.0
  Ni  Ni165  1  0.54165733  0.04169467  0.29463286  1.0
  Ni  Ni166  1  0.54165733  0.37502800  0.29463286  1.0
  Ni  Ni167  1  0.54165733  0.70836133  0.29463286  1.0
  Ni  Ni168  1  0.87499067  0.04169467  0.29463286  1.0
  Ni  Ni169  1  0.87499067  0.37502800  0.29463286  1.0
  Ni  Ni170  1  0.87499067  0.70836133  0.29463286  1.0
  Ni  Ni171  1  0.04165733  0.20836133  0.36606143  1.0
  Ni  Ni172  1  0.04165733  0.54169467  0.36606143  1.0
  Ni  Ni173  1  0.04165733  0.87502800  0.36606143  1.0
  Ni  Ni174  1  0.37499067  0.20836133  0.36606143  1.0
  Ni  Ni175  1  0.37499067  0.54169467  0.36606143  1.0
  Ni  Ni176  1  0.37499067  0.87502800  0.36606143  1.0
  Ni  Ni177  1  0.70832400  0.20836133  0.36606143  1.0
  Ni  Ni178  1  0.70832400  0.54169467  0.36606143  1.0
  Ni  Ni179  1  0.70832400  0.87502800  0.36606143  1.0
  Ni  Ni180  1  0.25000000  0.25000000  0.38393857  1.0
  Ni  Ni181  1  0.25000000  0.58333333  0.38393857  1.0
  Ni  Ni182  1  0.25000000  0.91666667  0.38393857  1.0
  Ni  Ni183  1  0.58333333  0.25000000  0.38393857  1.0
  Ni  Ni184  1  0.58333333  0.58333333  0.38393857  1.0
  Ni  Ni185  1  0.58333333  0.91666667  0.38393857  1.0
  Ni  Ni186  1  0.91666667  0.25000000  0.38393857  1.0
  Ni  Ni187  1  0.91666667  0.58333333  0.38393857  1.0
  Ni  Ni188  1  0.91666667  0.91666667  0.38393857  1.0
  Ni  Ni189  1  0.08333333  0.08333333  0.31251000  1.0
  Ni  Ni190  1  0.08333333  0.41666667  0.31251000  1.0
  Ni  Ni191  1  0.08333333  0.75000000  0.31251000  1.0
  Ni  Ni192  1  0.41666667  0.08333333  0.31251000  1.0
  Ni  Ni193  1  0.41666667  0.41666667  0.31251000  1.0
  Ni  Ni194  1  0.41666667  0.75000000  0.31251000  1.0
  Ni  Ni195  1  0.75000000  0.08333333  0.31251000  1.0
  Ni  Ni196  1  0.75000000  0.41666667  0.31251000  1.0
  Ni  Ni197  1  0.75000000  0.75000000  0.31251000  1.0
  Ni  Ni198  1  0.29167600  0.12497200  0.33038714  1.0
  Ni  Ni199  1  0.29167600  0.45830533  0.33038714  1.0
  Ni  Ni200  1  0.29167600  0.79163867  0.33038714  1.0
  Ni  Ni201  1  0.62500933  0.12497200  0.33038714  1.0
  Ni  Ni202  1  0.62500933  0.45830533  0.33038714  1.0
  Ni  Ni203  1  0.62500933  0.79163867  0.33038714  1.0
  Ni  Ni204  1  0.95834267  0.12497200  0.33038714  1.0
  Ni  Ni205  1  0.95834267  0.45830533  0.33038714  1.0
  Ni  Ni206  1  0.95834267  0.79163867  0.33038714  1.0
  Ni  Ni207  1  0.12500933  0.29163867  0.40181571  1.0
  Ni  Ni208  1  0.12500933  0.62497200  0.40181571  1.0
  Ni  Ni209  1  0.12500933  0.95830533  0.40181571  1.0
  Ni  Ni210  1  0.45834267  0.29163867  0.40181571  1.0
  Ni  Ni211  1  0.45834267  0.62497200  0.40181571  1.0
  Ni  Ni212  1  0.45834267  0.95830533  0.40181571  1.0
  Ni  Ni213  1  0.79167600  0.29163867  0.40181571  1.0
  Ni  Ni214  1  0.79167600  0.62497200  0.40181571  1.0
  Ni  Ni215  1  0.79167600  0.95830533  0.40181571  1.0
