# generated using pymatgen
data_VNi3
_symmetry_space_group_name_H-M   'P 1'
_cell_length_a   7.53937141
_cell_length_b   26.10533254
_cell_length_c   28.76282480
_cell_angle_alpha   92.90856227
_cell_angle_beta   90.00000000
_cell_angle_gamma   90.00000000
_symmetry_Int_Tables_number   1
_chemical_formula_structural   VNi3
_chemical_formula_sum   'V54 Ni162'
_cell_volume   5653.74320333
_cell_formula_units_Z   54
loop_
 _symmetry_equiv_pos_site_id
 _symmetry_equiv_pos_as_xyz
  1  'x, y, z'
loop_
 _atom_site_type_symbol
 _atom_site_label
 _atom_site_symmetry_multiplicity
 _atom_site_fract_x
 _atom_site_fract_y
 _atom_site_fract_z
 _atom_site_occupancy
  Ni  Ni0  1  0.33333333  0.17865410  0.96431771  1.0
  Ni  Ni1  1  0.33333333  0.51198743  0.96431771  1.0
  Ni  Ni2  1  0.33333333  0.84532076  0.96431771  1.0
  Ni  Ni3  1  0.66666667  0.17865410  0.96431771  1.0
  Ni  Ni4  1  0.66666667  0.51198743  0.96431771  1.0
  Ni  Ni5  1  0.66666667  0.84532076  0.96431771  1.0
  Ni  Ni6  1  1.00000000  0.17865410  0.96431771  1.0
  Ni  Ni7  1  1.00000000  0.51198743  0.96431771  1.0
  Ni  Ni8  1  0.00000000  0.84532076  0.96431771  1.0
  Ni  Ni9  1  0.16666667  0.20246362  0.89288914  1.0
  Ni  Ni10  1  0.16666667  0.53579695  0.89288914  1.0
  Ni  Ni11  1  0.16666667  0.86913029  0.89288914  1.0
  Ni  Ni12  1  0.50000000  0.20246362  0.89288914  1.0
  Ni  Ni13  1  0.50000000  0.53579695  0.89288914  1.0
  Ni  Ni14  1  0.50000000  0.86913029  0.89288914  1.0
  Ni  Ni15  1  0.83333333  0.20246362  0.89288914  1.0
  Ni  Ni16  1  0.83333333  0.53579695  0.89288914  1.0
  Ni  Ni17  1  0.83333333  0.86913029  0.89288914  1.0
  Ni  Ni18  1  0.33333333  0.28574629  0.89287314  1.0
  Ni  Ni19  1  0.33333333  0.61907962  0.89287314  1.0
  Ni  Ni20  1  0.33333333  0.95241295  0.89287314  1.0
  Ni  Ni21  1  0.66666667  0.28574629  0.89287314  1.0
  Ni  Ni22  1  0.66666667  0.61907962  0.89287314  1.0
  Ni  Ni23  1  0.66666667  0.95241295  0.89287314  1.0
  Ni  Ni24  1  1.00000000  0.28574629  0.89287314  1.0
  Ni  Ni25  1  1.00000000  0.61907962  0.89287314  1.0
  Ni  Ni26  1  1.00000000  0.95241295  0.89287314  1.0
  Ni  Ni27  1  0.16666667  0.26193676  0.96430171  1.0
  Ni  Ni28  1  0.16666667  0.59527010  0.96430171  1.0
  Ni  Ni29  1  0.16666667  0.92860343  0.96430171  1.0
  Ni  Ni30  1  0.50000000  0.26193676  0.96430171  1.0
  Ni  Ni31  1  0.50000000  0.59527010  0.96430171  1.0
  Ni  Ni32  1  0.50000000  0.92860343  0.96430171  1.0
  Ni  Ni33  1  0.83333333  0.26193676  0.96430171  1.0
  Ni  Ni34  1  0.83333333  0.59527010  0.96430171  1.0
  Ni  Ni35  1  0.83333333  0.92860343  0.96430171  1.0
  Ni  Ni36  1  0.33333333  0.01188610  0.96428571  1.0
  Ni  Ni37  1  0.33333333  0.34521943  0.96428571  1.0
  Ni  Ni38  1  0.33333333  0.67855276  0.96428571  1.0
  Ni  Ni39  1  0.66666667  0.01188610  0.96428571  1.0
  Ni  Ni40  1  0.66666667  0.34521943  0.96428571  1.0
  Ni  Ni41  1  0.66666667  0.67855276  0.96428571  1.0
  Ni  Ni42  1  1.00000000  0.01188610  0.96428571  1.0
  Ni  Ni43  1  0.00000000  0.34521943  0.96428571  1.0
  Ni  Ni44  1  1.00000000  0.67855276  0.96428571  1.0
  Ni  Ni45  1  0.16666667  0.03569562  0.89285714  1.0
  Ni  Ni46  1  0.16666667  0.36902895  0.89285714  1.0
  Ni  Ni47  1  0.16666667  0.70236229  0.89285714  1.0
  Ni  Ni48  1  0.50000000  0.03569562  0.89285714  1.0
  Ni  Ni49  1  0.50000000  0.36902895  0.89285714  1.0
  Ni  Ni50  1  0.50000000  0.70236229  0.89285714  1.0
  Ni  Ni51  1  0.83333333  0.03569562  0.89285714  1.0
  Ni  Ni52  1  0.83333333  0.36902895  0.89285714  1.0
  Ni  Ni53  1  0.83333333  0.70236229  0.89285714  1.0
  Ni  Ni54  1  0.33333333  0.22627314  0.82146057  1.0
  Ni  Ni55  1  0.33333333  0.55960648  0.82146057  1.0
  Ni  Ni56  1  0.33333333  0.89293981  0.82146057  1.0
  Ni  Ni57  1  0.66666667  0.22627314  0.82146057  1.0
  Ni  Ni58  1  0.66666667  0.55960648  0.82146057  1.0
  Ni  Ni59  1  0.66666667  0.89293981  0.82146057  1.0
  Ni  Ni60  1  1.00000000  0.22627314  0.82146057  1.0
  Ni  Ni61  1  1.00000000  0.55960648  0.82146057  1.0
  Ni  Ni62  1  0.00000000  0.89293981  0.82146057  1.0
  Ni  Ni63  1  0.16666667  0.25008267  0.75003200  1.0
  Ni  Ni64  1  0.16666667  0.58341600  0.75003200  1.0
  Ni  Ni65  1  0.16666667  0.91674933  0.75003200  1.0
  Ni  Ni66  1  0.50000000  0.25008267  0.75003200  1.0
  Ni  Ni67  1  0.50000000  0.58341600  0.75003200  1.0
  Ni  Ni68  1  0.50000000  0.91674933  0.75003200  1.0
  Ni  Ni69  1  0.83333333  0.25008267  0.75003200  1.0
  Ni  Ni70  1  0.83333333  0.58341600  0.75003200  1.0
  Ni  Ni71  1  0.83333333  0.91674933  0.75003200  1.0
  Ni  Ni72  1  0.00000000  0.00003200  0.75001600  1.0
  Ni  Ni73  1  0.00000000  0.33336533  0.75001600  1.0
  Ni  Ni74  1  0.00000000  0.66669867  0.75001600  1.0
  Ni  Ni75  1  0.33333333  0.00003200  0.75001600  1.0
  Ni  Ni76  1  0.33333333  0.33336533  0.75001600  1.0
  Ni  Ni77  1  0.33333333  0.66669867  0.75001600  1.0
  Ni  Ni78  1  0.66666667  0.00003200  0.75001600  1.0
  Ni  Ni79  1  0.66666667  0.33336533  0.75001600  1.0
  Ni  Ni80  1  0.66666667  0.66669867  0.75001600  1.0
  Ni  Ni81  1  0.16666667  0.30955581  0.82144457  1.0
  Ni  Ni82  1  0.16666667  0.64288914  0.82144457  1.0
  Ni  Ni83  1  0.16666667  0.97622248  0.82144457  1.0
  Ni  Ni84  1  0.50000000  0.30955581  0.82144457  1.0
  Ni  Ni85  1  0.50000000  0.64288914  0.82144457  1.0
  Ni  Ni86  1  0.50000000  0.97622248  0.82144457  1.0
  Ni  Ni87  1  0.83333333  0.30955581  0.82144457  1.0
  Ni  Ni88  1  0.83333333  0.64288914  0.82144457  1.0
  Ni  Ni89  1  0.83333333  0.97622248  0.82144457  1.0
  Ni  Ni90  1  0.33333333  0.05950514  0.82142857  1.0
  Ni  Ni91  1  0.33333333  0.39283848  0.82142857  1.0
  Ni  Ni92  1  0.33333333  0.72617181  0.82142857  1.0
  Ni  Ni93  1  0.66666667  0.05950514  0.82142857  1.0
  Ni  Ni94  1  0.66666667  0.39283848  0.82142857  1.0
  Ni  Ni95  1  0.66666667  0.72617181  0.82142857  1.0
  Ni  Ni96  1  0.00000000  0.05950514  0.82142857  1.0
  Ni  Ni97  1  0.00000000  0.39283848  0.82142857  1.0
  Ni  Ni98  1  1.00000000  0.72617181  0.82142857  1.0
  Ni  Ni99  1  0.16666667  0.08331467  0.75000000  1.0
  Ni  Ni100  1  0.16666667  0.41664800  0.75000000  1.0
  Ni  Ni101  1  0.16666667  0.74998133  0.75000000  1.0
  Ni  Ni102  1  0.50000000  0.08331467  0.75000000  1.0
  Ni  Ni103  1  0.50000000  0.41664800  0.75000000  1.0
  Ni  Ni104  1  0.50000000  0.74998133  0.75000000  1.0
  Ni  Ni105  1  0.83333333  0.08331467  0.75000000  1.0
  Ni  Ni106  1  0.83333333  0.41664800  0.75000000  1.0
  Ni  Ni107  1  0.83333333  0.74998133  0.75000000  1.0
  Ni  Ni108  1  0.33333333  0.27389219  0.67860343  1.0
  Ni  Ni109  1  0.33333333  0.60722552  0.67860343  1.0
  Ni  Ni110  1  0.33333333  0.94055886  0.67860343  1.0
  Ni  Ni111  1  0.66666667  0.27389219  0.67860343  1.0
  Ni  Ni112  1  0.66666667  0.60722552  0.67860343  1.0
  Ni  Ni113  1  0.66666667  0.94055886  0.67860343  1.0
  Ni  Ni114  1  1.00000000  0.27389219  0.67860343  1.0
  Ni  Ni115  1  1.00000000  0.60722552  0.67860343  1.0
  Ni  Ni116  1  1.00000000  0.94055886  0.67860343  1.0
  Ni  Ni117  1  0.16666667  0.29770171  0.60717486  1.0
  Ni  Ni118  1  0.16666667  0.63103505  0.60717486  1.0
  Ni  Ni119  1  0.16666667  0.96436838  0.60717486  1.0
  Ni  Ni120  1  0.50000000  0.29770171  0.60717486  1.0
  Ni  Ni121  1  0.50000000  0.63103505  0.60717486  1.0
  Ni  Ni122  1  0.50000000  0.96436838  0.60717486  1.0
  Ni  Ni123  1  0.83333333  0.29770171  0.60717486  1.0
  Ni  Ni124  1  0.83333333  0.63103505  0.60717486  1.0
  Ni  Ni125  1  0.83333333  0.96436838  0.60717486  1.0
  Ni  Ni126  1  0.33333333  0.04765105  0.60715886  1.0
  Ni  Ni127  1  0.33333333  0.38098438  0.60715886  1.0
  Ni  Ni128  1  0.33333333  0.71431771  0.60715886  1.0
  Ni  Ni129  1  0.66666667  0.04765105  0.60715886  1.0
  Ni  Ni130  1  0.66666667  0.38098438  0.60715886  1.0
  Ni  Ni131  1  0.66666667  0.71431771  0.60715886  1.0
  Ni  Ni132  1  1.00000000  0.04765105  0.60715886  1.0
  Ni  Ni133  1  1.00000000  0.38098438  0.60715886  1.0
  Ni  Ni134  1  1.00000000  0.71431771  0.60715886  1.0
  Ni  Ni135  1  0.16666667  0.02384152  0.67858743  1.0
  Ni  Ni136  1  0.16666667  0.35717486  0.67858743  1.0
  Ni  Ni137  1  0.16666667  0.69050819  0.67858743  1.0
  Ni  Ni138  1  0.50000000  0.02384152  0.67858743  1.0
  Ni  Ni139  1  0.50000000  0.35717486  0.67858743  1.0
  Ni  Ni140  1  0.50000000  0.69050819  0.67858743  1.0
  Ni  Ni141  1  0.83333333  0.02384152  0.67858743  1.0
  Ni  Ni142  1  0.83333333  0.35717486  0.67858743  1.0
  Ni  Ni143  1  0.83333333  0.69050819  0.67858743  1.0
  Ni  Ni144  1  0.33333333  0.10712419  0.67857143  1.0
  Ni  Ni145  1  0.33333333  0.44045752  0.67857143  1.0
  Ni  Ni146  1  0.33333333  0.77379086  0.67857143  1.0
  Ni  Ni147  1  0.66666667  0.10712419  0.67857143  1.0
  Ni  Ni148  1  0.66666667  0.44045752  0.67857143  1.0
  Ni  Ni149  1  0.66666667  0.77379086  0.67857143  1.0
  Ni  Ni150  1  1.00000000  0.10712419  0.67857143  1.0
  Ni  Ni151  1  1.00000000  0.44045752  0.67857143  1.0
  Ni  Ni152  1  1.00000000  0.77379086  0.67857143  1.0
  Ni  Ni153  1  0.16666667  0.13093371  0.60714286  1.0
  Ni  Ni154  1  0.16666667  0.46426705  0.60714286  1.0
  Ni  Ni155  1  0.16666667  0.79760038  0.60714286  1.0
  Ni  Ni156  1  0.50000000  0.13093371  0.60714286  1.0
  Ni  Ni157  1  0.50000000  0.46426705  0.60714286  1.0
  Ni  Ni158  1  0.50000000  0.79760038  0.60714286  1.0
  Ni  Ni159  1  0.83333333  0.13093371  0.60714286  1.0
  Ni  Ni160  1  0.83333333  0.46426705  0.60714286  1.0
  Ni  Ni161  1  0.83333333  0.79760038  0.60714286  1.0
  V  V162  1  0.33333333  0.11907962  0.89287314  1.0
  V  V163  1  0.33333333  0.45241295  0.89287314  1.0
  V  V164  1  0.33333333  0.78574629  0.89287314  1.0
  V  V165  1  0.66666667  0.11907962  0.89287314  1.0
  V  V166  1  0.66666667  0.45241295  0.89287314  1.0
  V  V167  1  0.66666667  0.78574629  0.89287314  1.0
  V  V168  1  1.00000000  0.11907962  0.89287314  1.0
  V  V169  1  0.00000000  0.45241295  0.89287314  1.0
  V  V170  1  0.00000000  0.78574629  0.89287314  1.0
  V  V171  1  0.16666667  0.09527010  0.96430171  1.0
  V  V172  1  0.16666667  0.42860343  0.96430171  1.0
  V  V173  1  0.16666667  0.76193676  0.96430171  1.0
  V  V174  1  0.50000000  0.09527010  0.96430171  1.0
  V  V175  1  0.50000000  0.42860343  0.96430171  1.0
  V  V176  1  0.50000000  0.76193676  0.96430171  1.0
  V  V177  1  0.83333333  0.09527010  0.96430171  1.0
  V  V178  1  0.83333333  0.42860343  0.96430171  1.0
  V  V179  1  0.83333333  0.76193676  0.96430171  1.0
  V  V180  1  0.33333333  0.16669867  0.75001600  1.0
  V  V181  1  0.33333333  0.50003200  0.75001600  1.0
  V  V182  1  0.33333333  0.83336533  0.75001600  1.0
  V  V183  1  0.66666667  0.16669867  0.75001600  1.0
  V  V184  1  0.66666667  0.50003200  0.75001600  1.0
  V  V185  1  0.66666667  0.83336533  0.75001600  1.0
  V  V186  1  1.00000000  0.16669867  0.75001600  1.0
  V  V187  1  1.00000000  0.50003200  0.75001600  1.0
  V  V188  1  0.00000000  0.83336533  0.75001600  1.0
  V  V189  1  0.16666667  0.14288914  0.82144457  1.0
  V  V190  1  0.16666667  0.47622248  0.82144457  1.0
  V  V191  1  0.16666667  0.80955581  0.82144457  1.0
  V  V192  1  0.50000000  0.14288914  0.82144457  1.0
  V  V193  1  0.50000000  0.47622248  0.82144457  1.0
  V  V194  1  0.50000000  0.80955581  0.82144457  1.0
  V  V195  1  0.83333333  0.14288914  0.82144457  1.0
  V  V196  1  0.83333333  0.47622248  0.82144457  1.0
  V  V197  1  0.83333333  0.80955581  0.82144457  1.0
  V  V198  1  0.33333333  0.21431771  0.60715886  1.0
  V  V199  1  0.33333333  0.54765105  0.60715886  1.0
  V  V200  1  0.33333333  0.88098438  0.60715886  1.0
  V  V201  1  0.66666667  0.21431771  0.60715886  1.0
  V  V202  1  0.66666667  0.54765105  0.60715886  1.0
  V  V203  1  0.66666667  0.88098438  0.60715886  1.0
  V  V204  1  1.00000000  0.21431771  0.60715886  1.0
  V  V205  1  1.00000000  0.54765105  0.60715886  1.0
  V  V206  1  0.00000000  0.88098438  0.60715886  1.0
  V  V207  1  0.16666667  0.19050819  0.67858743  1.0
  V  V208  1  0.16666667  0.52384152  0.67858743  1.0
  V  V209  1  0.16666667  0.85717486  0.67858743  1.0
  V  V210  1  0.50000000  0.19050819  0.67858743  1.0
  V  V211  1  0.50000000  0.52384152  0.67858743  1.0
  V  V212  1  0.50000000  0.85717486  0.67858743  1.0
  V  V213  1  0.83333333  0.19050819  0.67858743  1.0
  V  V214  1  0.83333333  0.52384152  0.67858743  1.0
  V  V215  1  0.83333333  0.85717486  0.67858743  1.0
