# generated using pymatgen
data_VNi3
_symmetry_space_group_name_H-M   'P 1'
_cell_length_a   10.57322399
_cell_length_b   33.22343973
_cell_length_c   28.19526398
_cell_angle_alpha   99.15599324
_cell_angle_beta   89.99999999
_cell_angle_gamma   99.15599323
_symmetry_Int_Tables_number   1
_chemical_formula_structural   VNi3
_chemical_formula_sum   'V90 Ni270'
_cell_volume   9650.36198552
_cell_formula_units_Z   90
loop_
 _symmetry_equiv_pos_site_id
 _symmetry_equiv_pos_as_xyz
  1  'x, y, z'
loop_
 _atom_site_type_symbol
 _atom_site_label
 _atom_site_symmetry_multiplicity
 _atom_site_fract_x
 _atom_site_fract_y
 _atom_site_fract_z
 _atom_site_occupancy
  Ni  Ni0  1  0.04166667  0.06250000  0.95312500  1.0
  Ni  Ni1  1  0.04166667  0.39583333  0.95312500  1.0
  Ni  Ni2  1  0.04166667  0.72916667  0.95312500  1.0
  Ni  Ni3  1  0.37500000  0.06250000  0.95312500  1.0
  Ni  Ni4  1  0.37500000  0.39583333  0.95312500  1.0
  Ni  Ni5  1  0.37500000  0.72916667  0.95312500  1.0
  Ni  Ni6  1  0.70833333  0.06250000  0.95312500  1.0
  Ni  Ni7  1  0.70833333  0.39583333  0.95312500  1.0
  Ni  Ni8  1  0.70833333  0.72916667  0.95312500  1.0
  Ni  Ni9  1  0.15277778  0.28472222  0.99479167  1.0
  Ni  Ni10  1  0.15277778  0.61805556  0.99479167  1.0
  Ni  Ni11  1  0.15277778  0.95138889  0.99479167  1.0
  Ni  Ni12  1  0.48611111  0.28472222  0.99479167  1.0
  Ni  Ni13  1  0.48611111  0.61805556  0.99479167  1.0
  Ni  Ni14  1  0.48611111  0.95138889  0.99479167  1.0
  Ni  Ni15  1  0.81944444  0.28472222  0.99479167  1.0
  Ni  Ni16  1  0.81944444  0.61805556  0.99479167  1.0
  Ni  Ni17  1  0.81944444  0.95138889  0.99479167  1.0
  Ni  Ni18  1  0.09722222  0.17361111  0.97395833  1.0
  Ni  Ni19  1  0.09722222  0.50694444  0.97395833  1.0
  Ni  Ni20  1  0.09722222  0.84027778  0.97395833  1.0
  Ni  Ni21  1  0.43055556  0.17361111  0.97395833  1.0
  Ni  Ni22  1  0.43055556  0.50694444  0.97395833  1.0
  Ni  Ni23  1  0.43055556  0.84027778  0.97395833  1.0
  Ni  Ni24  1  0.76388889  0.17361111  0.97395833  1.0
  Ni  Ni25  1  0.76388889  0.50694444  0.97395833  1.0
  Ni  Ni26  1  0.76388889  0.84027778  0.97395833  1.0
  Ni  Ni27  1  0.31944444  0.28472222  0.93229167  1.0
  Ni  Ni28  1  0.31944444  0.61805556  0.93229167  1.0
  Ni  Ni29  1  0.31944444  0.95138889  0.93229167  1.0
  Ni  Ni30  1  0.65277778  0.28472222  0.93229167  1.0
  Ni  Ni31  1  0.65277778  0.61805556  0.93229167  1.0
  Ni  Ni32  1  0.65277778  0.95138889  0.93229167  1.0
  Ni  Ni33  1  0.98611111  0.28472222  0.93229167  1.0
  Ni  Ni34  1  0.98611111  0.61805556  0.93229167  1.0
  Ni  Ni35  1  0.98611111  0.95138889  0.93229167  1.0
  Ni  Ni36  1  0.29166667  0.22916667  0.98437500  1.0
  Ni  Ni37  1  0.29166667  0.56250000  0.98437500  1.0
  Ni  Ni38  1  0.29166667  0.89583333  0.98437500  1.0
  Ni  Ni39  1  0.62500000  0.22916667  0.98437500  1.0
  Ni  Ni40  1  0.62500000  0.56250000  0.98437500  1.0
  Ni  Ni41  1  0.62500000  0.89583333  0.98437500  1.0
  Ni  Ni42  1  0.95833333  0.22916667  0.98437500  1.0
  Ni  Ni43  1  0.95833333  0.56250000  0.98437500  1.0
  Ni  Ni44  1  0.95833333  0.89583333  0.98437500  1.0
  Ni  Ni45  1  0.18055556  0.00694444  0.94270833  1.0
  Ni  Ni46  1  0.18055556  0.34027778  0.94270833  1.0
  Ni  Ni47  1  0.18055556  0.67361111  0.94270833  1.0
  Ni  Ni48  1  0.51388889  0.00694444  0.94270833  1.0
  Ni  Ni49  1  0.51388889  0.34027778  0.94270833  1.0
  Ni  Ni50  1  0.51388889  0.67361111  0.94270833  1.0
  Ni  Ni51  1  0.84722222  0.00694444  0.94270833  1.0
  Ni  Ni52  1  0.84722222  0.34027778  0.94270833  1.0
  Ni  Ni53  1  0.84722222  0.67361111  0.94270833  1.0
  Ni  Ni54  1  0.15277778  0.28472222  0.86979167  1.0
  Ni  Ni55  1  0.15277778  0.61805556  0.86979167  1.0
  Ni  Ni56  1  0.15277778  0.95138889  0.86979167  1.0
  Ni  Ni57  1  0.48611111  0.28472222  0.86979167  1.0
  Ni  Ni58  1  0.48611111  0.61805556  0.86979167  1.0
  Ni  Ni59  1  0.48611111  0.95138889  0.86979167  1.0
  Ni  Ni60  1  0.81944444  0.28472222  0.86979167  1.0
  Ni  Ni61  1  0.81944444  0.61805556  0.86979167  1.0
  Ni  Ni62  1  0.81944444  0.95138889  0.86979167  1.0
  Ni  Ni63  1  0.26388889  0.17361111  0.91145833  1.0
  Ni  Ni64  1  0.26388889  0.50694444  0.91145833  1.0
  Ni  Ni65  1  0.26388889  0.84027778  0.91145833  1.0
  Ni  Ni66  1  0.59722222  0.17361111  0.91145833  1.0
  Ni  Ni67  1  0.59722222  0.50694444  0.91145833  1.0
  Ni  Ni68  1  0.59722222  0.84027778  0.91145833  1.0
  Ni  Ni69  1  0.93055556  0.17361111  0.91145833  1.0
  Ni  Ni70  1  0.93055556  0.50694444  0.91145833  1.0
  Ni  Ni71  1  0.93055556  0.84027778  0.91145833  1.0
  Ni  Ni72  1  0.20833333  0.06250000  0.89062500  1.0
  Ni  Ni73  1  0.20833333  0.39583333  0.89062500  1.0
  Ni  Ni74  1  0.20833333  0.72916667  0.89062500  1.0
  Ni  Ni75  1  0.54166667  0.06250000  0.89062500  1.0
  Ni  Ni76  1  0.54166667  0.39583333  0.89062500  1.0
  Ni  Ni77  1  0.54166667  0.72916667  0.89062500  1.0
  Ni  Ni78  1  0.87500000  0.06250000  0.89062500  1.0
  Ni  Ni79  1  0.87500000  0.39583333  0.89062500  1.0
  Ni  Ni80  1  0.87500000  0.72916667  0.89062500  1.0
  Ni  Ni81  1  0.09722222  0.17361111  0.84895833  1.0
  Ni  Ni82  1  0.09722222  0.50694444  0.84895833  1.0
  Ni  Ni83  1  0.09722222  0.84027778  0.84895833  1.0
  Ni  Ni84  1  0.43055556  0.17361111  0.84895833  1.0
  Ni  Ni85  1  0.43055556  0.50694444  0.84895833  1.0
  Ni  Ni86  1  0.43055556  0.84027778  0.84895833  1.0
  Ni  Ni87  1  0.76388889  0.17361111  0.84895833  1.0
  Ni  Ni88  1  0.76388889  0.50694444  0.84895833  1.0
  Ni  Ni89  1  0.76388889  0.84027778  0.84895833  1.0
  Ni  Ni90  1  0.06944444  0.11805556  0.90104167  1.0
  Ni  Ni91  1  0.06944444  0.45138889  0.90104167  1.0
  Ni  Ni92  1  0.06944444  0.78472222  0.90104167  1.0
  Ni  Ni93  1  0.40277778  0.11805556  0.90104167  1.0
  Ni  Ni94  1  0.40277778  0.45138889  0.90104167  1.0
  Ni  Ni95  1  0.40277778  0.78472222  0.90104167  1.0
  Ni  Ni96  1  0.73611111  0.11805556  0.90104167  1.0
  Ni  Ni97  1  0.73611111  0.45138889  0.90104167  1.0
  Ni  Ni98  1  0.73611111  0.78472222  0.90104167  1.0
  Ni  Ni99  1  0.29166667  0.22916667  0.85937500  1.0
  Ni  Ni100  1  0.29166667  0.56250000  0.85937500  1.0
  Ni  Ni101  1  0.29166667  0.89583333  0.85937500  1.0
  Ni  Ni102  1  0.62500000  0.22916667  0.85937500  1.0
  Ni  Ni103  1  0.62500000  0.56250000  0.85937500  1.0
  Ni  Ni104  1  0.62500000  0.89583333  0.85937500  1.0
  Ni  Ni105  1  0.95833333  0.22916667  0.85937500  1.0
  Ni  Ni106  1  0.95833333  0.56250000  0.85937500  1.0
  Ni  Ni107  1  0.95833333  0.89583333  0.85937500  1.0
  Ni  Ni108  1  0.26388889  0.17361111  0.78645833  1.0
  Ni  Ni109  1  0.26388889  0.50694444  0.78645833  1.0
  Ni  Ni110  1  0.26388889  0.84027778  0.78645833  1.0
  Ni  Ni111  1  0.59722222  0.17361111  0.78645833  1.0
  Ni  Ni112  1  0.59722222  0.50694444  0.78645833  1.0
  Ni  Ni113  1  0.59722222  0.84027778  0.78645833  1.0
  Ni  Ni114  1  0.93055556  0.17361111  0.78645833  1.0
  Ni  Ni115  1  0.93055556  0.50694444  0.78645833  1.0
  Ni  Ni116  1  0.93055556  0.84027778  0.78645833  1.0
  Ni  Ni117  1  0.04166667  0.06250000  0.82812500  1.0
  Ni  Ni118  1  0.04166667  0.39583333  0.82812500  1.0
  Ni  Ni119  1  0.04166667  0.72916667  0.82812500  1.0
  Ni  Ni120  1  0.37500000  0.06250000  0.82812500  1.0
  Ni  Ni121  1  0.37500000  0.39583333  0.82812500  1.0
  Ni  Ni122  1  0.37500000  0.72916667  0.82812500  1.0
  Ni  Ni123  1  0.70833333  0.06250000  0.82812500  1.0
  Ni  Ni124  1  0.70833333  0.39583333  0.82812500  1.0
  Ni  Ni125  1  0.70833333  0.72916667  0.82812500  1.0
  Ni  Ni126  1  0.31944444  0.28472222  0.80729167  1.0
  Ni  Ni127  1  0.31944444  0.61805556  0.80729167  1.0
  Ni  Ni128  1  0.31944444  0.95138889  0.80729167  1.0
  Ni  Ni129  1  0.65277778  0.28472222  0.80729167  1.0
  Ni  Ni130  1  0.65277778  0.61805556  0.80729167  1.0
  Ni  Ni131  1  0.65277778  0.95138889  0.80729167  1.0
  Ni  Ni132  1  0.98611111  0.28472222  0.80729167  1.0
  Ni  Ni133  1  0.98611111  0.61805556  0.80729167  1.0
  Ni  Ni134  1  0.98611111  0.95138889  0.80729167  1.0
  Ni  Ni135  1  0.20833333  0.06250000  0.76562500  1.0
  Ni  Ni136  1  0.20833333  0.39583333  0.76562500  1.0
  Ni  Ni137  1  0.20833333  0.72916667  0.76562500  1.0
  Ni  Ni138  1  0.54166667  0.06250000  0.76562500  1.0
  Ni  Ni139  1  0.54166667  0.39583333  0.76562500  1.0
  Ni  Ni140  1  0.54166667  0.72916667  0.76562500  1.0
  Ni  Ni141  1  0.87500000  0.06250000  0.76562500  1.0
  Ni  Ni142  1  0.87500000  0.39583333  0.76562500  1.0
  Ni  Ni143  1  0.87500000  0.72916667  0.76562500  1.0
  Ni  Ni144  1  0.18055556  0.00694444  0.81770833  1.0
  Ni  Ni145  1  0.18055556  0.34027778  0.81770833  1.0
  Ni  Ni146  1  0.18055556  0.67361111  0.81770833  1.0
  Ni  Ni147  1  0.51388889  0.00694444  0.81770833  1.0
  Ni  Ni148  1  0.51388889  0.34027778  0.81770833  1.0
  Ni  Ni149  1  0.51388889  0.67361111  0.81770833  1.0
  Ni  Ni150  1  0.84722222  0.00694444  0.81770833  1.0
  Ni  Ni151  1  0.84722222  0.34027778  0.81770833  1.0
  Ni  Ni152  1  0.84722222  0.67361111  0.81770833  1.0
  Ni  Ni153  1  0.06944444  0.11805556  0.77604167  1.0
  Ni  Ni154  1  0.06944444  0.45138889  0.77604167  1.0
  Ni  Ni155  1  0.06944444  0.78472222  0.77604167  1.0
  Ni  Ni156  1  0.40277778  0.11805556  0.77604167  1.0
  Ni  Ni157  1  0.40277778  0.45138889  0.77604167  1.0
  Ni  Ni158  1  0.40277778  0.78472222  0.77604167  1.0
  Ni  Ni159  1  0.73611111  0.11805556  0.77604167  1.0
  Ni  Ni160  1  0.73611111  0.45138889  0.77604167  1.0
  Ni  Ni161  1  0.73611111  0.78472222  0.77604167  1.0
  Ni  Ni162  1  0.04166667  0.06250000  0.70312500  1.0
  Ni  Ni163  1  0.04166667  0.39583333  0.70312500  1.0
  Ni  Ni164  1  0.04166667  0.72916667  0.70312500  1.0
  Ni  Ni165  1  0.37500000  0.06250000  0.70312500  1.0
  Ni  Ni166  1  0.37500000  0.39583333  0.70312500  1.0
  Ni  Ni167  1  0.37500000  0.72916667  0.70312500  1.0
  Ni  Ni168  1  0.70833333  0.06250000  0.70312500  1.0
  Ni  Ni169  1  0.70833333  0.39583333  0.70312500  1.0
  Ni  Ni170  1  0.70833333  0.72916667  0.70312500  1.0
  Ni  Ni171  1  0.15277778  0.28472222  0.74479167  1.0
  Ni  Ni172  1  0.15277778  0.61805556  0.74479167  1.0
  Ni  Ni173  1  0.15277778  0.95138889  0.74479167  1.0
  Ni  Ni174  1  0.48611111  0.28472222  0.74479167  1.0
  Ni  Ni175  1  0.48611111  0.61805556  0.74479167  1.0
  Ni  Ni176  1  0.48611111  0.95138889  0.74479167  1.0
  Ni  Ni177  1  0.81944444  0.28472222  0.74479167  1.0
  Ni  Ni178  1  0.81944444  0.61805556  0.74479167  1.0
  Ni  Ni179  1  0.81944444  0.95138889  0.74479167  1.0
  Ni  Ni180  1  0.09722222  0.17361111  0.72395833  1.0
  Ni  Ni181  1  0.09722222  0.50694444  0.72395833  1.0
  Ni  Ni182  1  0.09722222  0.84027778  0.72395833  1.0
  Ni  Ni183  1  0.43055556  0.17361111  0.72395833  1.0
  Ni  Ni184  1  0.43055556  0.50694444  0.72395833  1.0
  Ni  Ni185  1  0.43055556  0.84027778  0.72395833  1.0
  Ni  Ni186  1  0.76388889  0.17361111  0.72395833  1.0
  Ni  Ni187  1  0.76388889  0.50694444  0.72395833  1.0
  Ni  Ni188  1  0.76388889  0.84027778  0.72395833  1.0
  Ni  Ni189  1  0.31944444  0.28472222  0.68229167  1.0
  Ni  Ni190  1  0.31944444  0.61805556  0.68229167  1.0
  Ni  Ni191  1  0.31944444  0.95138889  0.68229167  1.0
  Ni  Ni192  1  0.65277778  0.28472222  0.68229167  1.0
  Ni  Ni193  1  0.65277778  0.61805556  0.68229167  1.0
  Ni  Ni194  1  0.65277778  0.95138889  0.68229167  1.0
  Ni  Ni195  1  0.98611111  0.28472222  0.68229167  1.0
  Ni  Ni196  1  0.98611111  0.61805556  0.68229167  1.0
  Ni  Ni197  1  0.98611111  0.95138889  0.68229167  1.0
  Ni  Ni198  1  0.29166667  0.22916667  0.73437500  1.0
  Ni  Ni199  1  0.29166667  0.56250000  0.73437500  1.0
  Ni  Ni200  1  0.29166667  0.89583333  0.73437500  1.0
  Ni  Ni201  1  0.62500000  0.22916667  0.73437500  1.0
  Ni  Ni202  1  0.62500000  0.56250000  0.73437500  1.0
  Ni  Ni203  1  0.62500000  0.89583333  0.73437500  1.0
  Ni  Ni204  1  0.95833333  0.22916667  0.73437500  1.0
  Ni  Ni205  1  0.95833333  0.56250000  0.73437500  1.0
  Ni  Ni206  1  0.95833333  0.89583333  0.73437500  1.0
  Ni  Ni207  1  0.18055556  0.00694444  0.69270833  1.0
  Ni  Ni208  1  0.18055556  0.34027778  0.69270833  1.0
  Ni  Ni209  1  0.18055556  0.67361111  0.69270833  1.0
  Ni  Ni210  1  0.51388889  0.00694444  0.69270833  1.0
  Ni  Ni211  1  0.51388889  0.34027778  0.69270833  1.0
  Ni  Ni212  1  0.51388889  0.67361111  0.69270833  1.0
  Ni  Ni213  1  0.84722222  0.00694444  0.69270833  1.0
  Ni  Ni214  1  0.84722222  0.34027778  0.69270833  1.0
  Ni  Ni215  1  0.84722222  0.67361111  0.69270833  1.0
  Ni  Ni216  1  0.15277778  0.28472222  0.61979167  1.0
  Ni  Ni217  1  0.15277778  0.61805556  0.61979167  1.0
  Ni  Ni218  1  0.15277778  0.95138889  0.61979167  1.0
  Ni  Ni219  1  0.48611111  0.28472222  0.61979167  1.0
  Ni  Ni220  1  0.48611111  0.61805556  0.61979167  1.0
  Ni  Ni221  1  0.48611111  0.95138889  0.61979167  1.0
  Ni  Ni222  1  0.81944444  0.28472222  0.61979167  1.0
  Ni  Ni223  1  0.81944444  0.61805556  0.61979167  1.0
  Ni  Ni224  1  0.81944444  0.95138889  0.61979167  1.0
  Ni  Ni225  1  0.26388889  0.17361111  0.66145833  1.0
  Ni  Ni226  1  0.26388889  0.50694444  0.66145833  1.0
  Ni  Ni227  1  0.26388889  0.84027778  0.66145833  1.0
  Ni  Ni228  1  0.59722222  0.17361111  0.66145833  1.0
  Ni  Ni229  1  0.59722222  0.50694444  0.66145833  1.0
  Ni  Ni230  1  0.59722222  0.84027778  0.66145833  1.0
  Ni  Ni231  1  0.93055556  0.17361111  0.66145833  1.0
  Ni  Ni232  1  0.93055556  0.50694444  0.66145833  1.0
  Ni  Ni233  1  0.93055556  0.84027778  0.66145833  1.0
  Ni  Ni234  1  0.20833333  0.06250000  0.64062500  1.0
  Ni  Ni235  1  0.20833333  0.39583333  0.64062500  1.0
  Ni  Ni236  1  0.20833333  0.72916667  0.64062500  1.0
  Ni  Ni237  1  0.54166667  0.06250000  0.64062500  1.0
  Ni  Ni238  1  0.54166667  0.39583333  0.64062500  1.0
  Ni  Ni239  1  0.54166667  0.72916667  0.64062500  1.0
  Ni  Ni240  1  0.87500000  0.06250000  0.64062500  1.0
  Ni  Ni241  1  0.87500000  0.39583333  0.64062500  1.0
  Ni  Ni242  1  0.87500000  0.72916667  0.64062500  1.0
  Ni  Ni243  1  0.09722222  0.17361111  0.59895833  1.0
  Ni  Ni244  1  0.09722222  0.50694444  0.59895833  1.0
  Ni  Ni245  1  0.09722222  0.84027778  0.59895833  1.0
  Ni  Ni246  1  0.43055556  0.17361111  0.59895833  1.0
  Ni  Ni247  1  0.43055556  0.50694444  0.59895833  1.0
  Ni  Ni248  1  0.43055556  0.84027778  0.59895833  1.0
  Ni  Ni249  1  0.76388889  0.17361111  0.59895833  1.0
  Ni  Ni250  1  0.76388889  0.50694444  0.59895833  1.0
  Ni  Ni251  1  0.76388889  0.84027778  0.59895833  1.0
  Ni  Ni252  1  0.06944444  0.11805556  0.65104167  1.0
  Ni  Ni253  1  0.06944444  0.45138889  0.65104167  1.0
  Ni  Ni254  1  0.06944444  0.78472222  0.65104167  1.0
  Ni  Ni255  1  0.40277778  0.11805556  0.65104167  1.0
  Ni  Ni256  1  0.40277778  0.45138889  0.65104167  1.0
  Ni  Ni257  1  0.40277778  0.78472222  0.65104167  1.0
  Ni  Ni258  1  0.73611111  0.11805556  0.65104167  1.0
  Ni  Ni259  1  0.73611111  0.45138889  0.65104167  1.0
  Ni  Ni260  1  0.73611111  0.78472222  0.65104167  1.0
  Ni  Ni261  1  0.29166667  0.22916667  0.60937500  1.0
  Ni  Ni262  1  0.29166667  0.56250000  0.60937500  1.0
  Ni  Ni263  1  0.29166667  0.89583333  0.60937500  1.0
  Ni  Ni264  1  0.62500000  0.22916667  0.60937500  1.0
  Ni  Ni265  1  0.62500000  0.56250000  0.60937500  1.0
  Ni  Ni266  1  0.62500000  0.89583333  0.60937500  1.0
  Ni  Ni267  1  0.95833333  0.22916667  0.60937500  1.0
  Ni  Ni268  1  0.95833333  0.56250000  0.60937500  1.0
  Ni  Ni269  1  0.95833333  0.89583333  0.60937500  1.0
  V  V270  1  0.23611111  0.11805556  0.96354167  1.0
  V  V271  1  0.23611111  0.45138889  0.96354167  1.0
  V  V272  1  0.23611111  0.78472222  0.96354167  1.0
  V  V273  1  0.56944444  0.11805556  0.96354167  1.0
  V  V274  1  0.56944444  0.45138889  0.96354167  1.0
  V  V275  1  0.56944444  0.78472222  0.96354167  1.0
  V  V276  1  0.90277778  0.11805556  0.96354167  1.0
  V  V277  1  0.90277778  0.45138889  0.96354167  1.0
  V  V278  1  0.90277778  0.78472222  0.96354167  1.0
  V  V279  1  0.12500000  0.22916667  0.92187500  1.0
  V  V280  1  0.12500000  0.56250000  0.92187500  1.0
  V  V281  1  0.12500000  0.89583333  0.92187500  1.0
  V  V282  1  0.45833333  0.22916667  0.92187500  1.0
  V  V283  1  0.45833333  0.56250000  0.92187500  1.0
  V  V284  1  0.45833333  0.89583333  0.92187500  1.0
  V  V285  1  0.79166667  0.22916667  0.92187500  1.0
  V  V286  1  0.79166667  0.56250000  0.92187500  1.0
  V  V287  1  0.79166667  0.89583333  0.92187500  1.0
  V  V288  1  0.01388889  0.00694444  0.88020833  1.0
  V  V289  1  0.01388889  0.34027778  0.88020833  1.0
  V  V290  1  0.01388889  0.67361111  0.88020833  1.0
  V  V291  1  0.34722222  0.00694444  0.88020833  1.0
  V  V292  1  0.34722222  0.34027778  0.88020833  1.0
  V  V293  1  0.34722222  0.67361111  0.88020833  1.0
  V  V294  1  0.68055556  0.00694444  0.88020833  1.0
  V  V295  1  0.68055556  0.34027778  0.88020833  1.0
  V  V296  1  0.68055556  0.67361111  0.88020833  1.0
  V  V297  1  0.23611111  0.11805556  0.83854167  1.0
  V  V298  1  0.23611111  0.45138889  0.83854167  1.0
  V  V299  1  0.23611111  0.78472222  0.83854167  1.0
  V  V300  1  0.56944444  0.11805556  0.83854167  1.0
  V  V301  1  0.56944444  0.45138889  0.83854167  1.0
  V  V302  1  0.56944444  0.78472222  0.83854167  1.0
  V  V303  1  0.90277778  0.11805556  0.83854167  1.0
  V  V304  1  0.90277778  0.45138889  0.83854167  1.0
  V  V305  1  0.90277778  0.78472222  0.83854167  1.0
  V  V306  1  0.12500000  0.22916667  0.79687500  1.0
  V  V307  1  0.12500000  0.56250000  0.79687500  1.0
  V  V308  1  0.12500000  0.89583333  0.79687500  1.0
  V  V309  1  0.45833333  0.22916667  0.79687500  1.0
  V  V310  1  0.45833333  0.56250000  0.79687500  1.0
  V  V311  1  0.45833333  0.89583333  0.79687500  1.0
  V  V312  1  0.79166667  0.22916667  0.79687500  1.0
  V  V313  1  0.79166667  0.56250000  0.79687500  1.0
  V  V314  1  0.79166667  0.89583333  0.79687500  1.0
  V  V315  1  0.01388889  0.00694444  0.75520833  1.0
  V  V316  1  0.01388889  0.34027778  0.75520833  1.0
  V  V317  1  0.01388889  0.67361111  0.75520833  1.0
  V  V318  1  0.34722222  0.00694444  0.75520833  1.0
  V  V319  1  0.34722222  0.34027778  0.75520833  1.0
  V  V320  1  0.34722222  0.67361111  0.75520833  1.0
  V  V321  1  0.68055556  0.00694444  0.75520833  1.0
  V  V322  1  0.68055556  0.34027778  0.75520833  1.0
  V  V323  1  0.68055556  0.67361111  0.75520833  1.0
  V  V324  1  0.23611111  0.11805556  0.71354167  1.0
  V  V325  1  0.23611111  0.45138889  0.71354167  1.0
  V  V326  1  0.23611111  0.78472222  0.71354167  1.0
  V  V327  1  0.56944444  0.11805556  0.71354167  1.0
  V  V328  1  0.56944444  0.45138889  0.71354167  1.0
  V  V329  1  0.56944444  0.78472222  0.71354167  1.0
  V  V330  1  0.90277778  0.11805556  0.71354167  1.0
  V  V331  1  0.90277778  0.45138889  0.71354167  1.0
  V  V332  1  0.90277778  0.78472222  0.71354167  1.0
  V  V333  1  0.12500000  0.22916667  0.67187500  1.0
  V  V334  1  0.12500000  0.56250000  0.67187500  1.0
  V  V335  1  0.12500000  0.89583333  0.67187500  1.0
  V  V336  1  0.45833333  0.22916667  0.67187500  1.0
  V  V337  1  0.45833333  0.56250000  0.67187500  1.0
  V  V338  1  0.45833333  0.89583333  0.67187500  1.0
  V  V339  1  0.79166667  0.22916667  0.67187500  1.0
  V  V340  1  0.79166667  0.56250000  0.67187500  1.0
  V  V341  1  0.79166667  0.89583333  0.67187500  1.0
  V  V342  1  0.01388889  0.00694444  0.63020833  1.0
  V  V343  1  0.01388889  0.34027778  0.63020833  1.0
  V  V344  1  0.01388889  0.67361111  0.63020833  1.0
  V  V345  1  0.34722222  0.00694444  0.63020833  1.0
  V  V346  1  0.34722222  0.34027778  0.63020833  1.0
  V  V347  1  0.34722222  0.67361111  0.63020833  1.0
  V  V348  1  0.68055556  0.00694444  0.63020833  1.0
  V  V349  1  0.68055556  0.34027778  0.63020833  1.0
  V  V350  1  0.68055556  0.67361111  0.63020833  1.0
  V  V351  1  0.23611111  0.11805556  0.58854167  1.0
  V  V352  1  0.23611111  0.45138889  0.58854167  1.0
  V  V353  1  0.23611111  0.78472222  0.58854167  1.0
  V  V354  1  0.56944444  0.11805556  0.58854167  1.0
  V  V355  1  0.56944444  0.45138889  0.58854167  1.0
  V  V356  1  0.56944444  0.78472222  0.58854167  1.0
  V  V357  1  0.90277778  0.11805556  0.58854167  1.0
  V  V358  1  0.90277778  0.45138889  0.58854167  1.0
  V  V359  1  0.90277778  0.78472222  0.58854167  1.0
