# generated using pymatgen
data_VNi
_symmetry_space_group_name_H-M   'P 1'
_cell_length_a   13.49092500
_cell_length_b   25.87289388
_cell_length_c   89.93950000
_cell_angle_alpha   16.48381560
_cell_angle_beta   32.96763120
_cell_angle_gamma   28.96234355
_symmetry_Int_Tables_number   1
_chemical_formula_structural   VNi
_chemical_formula_sum   'V72 Ni72'
_cell_volume   4313.40806900
_cell_formula_units_Z   72
loop_
 _symmetry_equiv_pos_site_id
 _symmetry_equiv_pos_as_xyz
  1  'x, y, z'
loop_
 _atom_site_type_symbol
 _atom_site_label
 _atom_site_symmetry_multiplicity
 _atom_site_fract_x
 _atom_site_fract_y
 _atom_site_fract_z
 _atom_site_occupancy
  V  V0  1  0.16666667  0.16666667  0.02500000  1.0
  V  V1  1  0.16666667  0.50000000  0.02500000  1.0
  V  V2  1  0.16666667  0.83333333  0.02500000  1.0
  V  V3  1  0.50000000  0.16666667  0.02500000  1.0
  V  V4  1  0.50000000  0.50000000  0.02500000  1.0
  V  V5  1  0.50000000  0.83333333  0.02500000  1.0
  V  V6  1  0.83333333  0.16666667  0.02500000  1.0
  V  V7  1  0.83333333  0.50000000  0.02500000  1.0
  V  V8  1  0.83333333  0.83333333  0.02500000  1.0
  Ni  Ni9  1  0.00000000  0.00000000  0.02500000  1.0
  Ni  Ni10  1  0.00000000  0.33333333  0.02500000  1.0
  Ni  Ni11  1  0.00000000  0.66666667  0.02500000  1.0
  Ni  Ni12  1  0.33333333  0.00000000  0.02500000  1.0
  Ni  Ni13  1  0.33333333  0.33333333  0.02500000  1.0
  Ni  Ni14  1  0.33333333  0.66666667  0.02500000  1.0
  Ni  Ni15  1  0.66666667  0.00000000  0.02500000  1.0
  Ni  Ni16  1  0.66666667  0.33333333  0.02500000  1.0
  Ni  Ni17  1  0.66666667  0.66666667  0.02500000  1.0
  V  V18  1  0.16666667  0.16666667  0.07500000  1.0
  V  V19  1  0.16666667  0.50000000  0.07500000  1.0
  V  V20  1  0.16666667  0.83333333  0.07500000  1.0
  V  V21  1  0.50000000  0.16666667  0.07500000  1.0
  V  V22  1  0.50000000  0.50000000  0.07500000  1.0
  V  V23  1  0.50000000  0.83333333  0.07500000  1.0
  V  V24  1  0.83333333  0.16666667  0.07500000  1.0
  V  V25  1  0.83333333  0.50000000  0.07500000  1.0
  V  V26  1  0.83333333  0.83333333  0.07500000  1.0
  Ni  Ni27  1  0.00000000  0.00000000  0.07500000  1.0
  Ni  Ni28  1  0.00000000  0.33333333  0.07500000  1.0
  Ni  Ni29  1  0.00000000  0.66666667  0.07500000  1.0
  Ni  Ni30  1  0.33333333  0.00000000  0.07500000  1.0
  Ni  Ni31  1  0.33333333  0.33333333  0.07500000  1.0
  Ni  Ni32  1  0.33333333  0.66666667  0.07500000  1.0
  Ni  Ni33  1  0.66666667  0.00000000  0.07500000  1.0
  Ni  Ni34  1  0.66666667  0.33333333  0.07500000  1.0
  Ni  Ni35  1  0.66666667  0.66666667  0.07500000  1.0
  V  V36  1  0.16666667  0.16666667  0.12500000  1.0
  V  V37  1  0.16666667  0.50000000  0.12500000  1.0
  V  V38  1  0.16666667  0.83333333  0.12500000  1.0
  V  V39  1  0.50000000  0.16666667  0.12500000  1.0
  V  V40  1  0.50000000  0.50000000  0.12500000  1.0
  V  V41  1  0.50000000  0.83333333  0.12500000  1.0
  V  V42  1  0.83333333  0.16666667  0.12500000  1.0
  V  V43  1  0.83333333  0.50000000  0.12500000  1.0
  V  V44  1  0.83333333  0.83333333  0.12500000  1.0
  Ni  Ni45  1  0.00000000  0.00000000  0.12500000  1.0
  Ni  Ni46  1  0.00000000  0.33333333  0.12500000  1.0
  Ni  Ni47  1  0.00000000  0.66666667  0.12500000  1.0
  Ni  Ni48  1  0.33333333  0.00000000  0.12500000  1.0
  Ni  Ni49  1  0.33333333  0.33333333  0.12500000  1.0
  Ni  Ni50  1  0.33333333  0.66666667  0.12500000  1.0
  Ni  Ni51  1  0.66666667  0.00000000  0.12500000  1.0
  Ni  Ni52  1  0.66666667  0.33333333  0.12500000  1.0
  Ni  Ni53  1  0.66666667  0.66666667  0.12500000  1.0
  V  V54  1  0.16666667  0.16666667  0.17500000  1.0
  V  V55  1  0.16666667  0.50000000  0.17500000  1.0
  V  V56  1  0.16666667  0.83333333  0.17500000  1.0
  V  V57  1  0.50000000  0.16666667  0.17500000  1.0
  V  V58  1  0.50000000  0.50000000  0.17500000  1.0
  V  V59  1  0.50000000  0.83333333  0.17500000  1.0
  V  V60  1  0.83333333  0.16666667  0.17500000  1.0
  V  V61  1  0.83333333  0.50000000  0.17500000  1.0
  V  V62  1  0.83333333  0.83333333  0.17500000  1.0
  Ni  Ni63  1  0.00000000  0.00000000  0.17500000  1.0
  Ni  Ni64  1  0.00000000  0.33333333  0.17500000  1.0
  Ni  Ni65  1  0.00000000  0.66666667  0.17500000  1.0
  Ni  Ni66  1  0.33333333  0.00000000  0.17500000  1.0
  Ni  Ni67  1  0.33333333  0.33333333  0.17500000  1.0
  Ni  Ni68  1  0.33333333  0.66666667  0.17500000  1.0
  Ni  Ni69  1  0.66666667  0.00000000  0.17500000  1.0
  Ni  Ni70  1  0.66666667  0.33333333  0.17500000  1.0
  Ni  Ni71  1  0.66666667  0.66666667  0.17500000  1.0
  V  V72  1  0.16666667  0.16666667  0.22500000  1.0
  V  V73  1  0.16666667  0.50000000  0.22500000  1.0
  V  V74  1  0.16666667  0.83333333  0.22500000  1.0
  V  V75  1  0.50000000  0.16666667  0.22500000  1.0
  V  V76  1  0.50000000  0.50000000  0.22500000  1.0
  V  V77  1  0.50000000  0.83333333  0.22500000  1.0
  V  V78  1  0.83333333  0.16666667  0.22500000  1.0
  V  V79  1  0.83333333  0.50000000  0.22500000  1.0
  V  V80  1  0.83333333  0.83333333  0.22500000  1.0
  Ni  Ni81  1  0.00000000  0.00000000  0.22500000  1.0
  Ni  Ni82  1  0.00000000  0.33333333  0.22500000  1.0
  Ni  Ni83  1  0.00000000  0.66666667  0.22500000  1.0
  Ni  Ni84  1  0.33333333  0.00000000  0.22500000  1.0
  Ni  Ni85  1  0.33333333  0.33333333  0.22500000  1.0
  Ni  Ni86  1  0.33333333  0.66666667  0.22500000  1.0
  Ni  Ni87  1  0.66666667  0.00000000  0.22500000  1.0
  Ni  Ni88  1  0.66666667  0.33333333  0.22500000  1.0
  Ni  Ni89  1  0.66666667  0.66666667  0.22500000  1.0
  V  V90  1  0.16666667  0.16666667  0.27500000  1.0
  V  V91  1  0.16666667  0.50000000  0.27500000  1.0
  V  V92  1  0.16666667  0.83333333  0.27500000  1.0
  V  V93  1  0.50000000  0.16666667  0.27500000  1.0
  V  V94  1  0.50000000  0.50000000  0.27500000  1.0
  V  V95  1  0.50000000  0.83333333  0.27500000  1.0
  V  V96  1  0.83333333  0.16666667  0.27500000  1.0
  V  V97  1  0.83333333  0.50000000  0.27500000  1.0
  V  V98  1  0.83333333  0.83333333  0.27500000  1.0
  Ni  Ni99  1  0.00000000  0.00000000  0.27500000  1.0
  Ni  Ni100  1  0.00000000  0.33333333  0.27500000  1.0
  Ni  Ni101  1  0.00000000  0.66666667  0.27500000  1.0
  Ni  Ni102  1  0.33333333  0.00000000  0.27500000  1.0
  Ni  Ni103  1  0.33333333  0.33333333  0.27500000  1.0
  Ni  Ni104  1  0.33333333  0.66666667  0.27500000  1.0
  Ni  Ni105  1  0.66666667  0.00000000  0.27500000  1.0
  Ni  Ni106  1  0.66666667  0.33333333  0.27500000  1.0
  Ni  Ni107  1  0.66666667  0.66666667  0.27500000  1.0
  V  V108  1  0.16666667  0.16666667  0.32500000  1.0
  V  V109  1  0.16666667  0.50000000  0.32500000  1.0
  V  V110  1  0.16666667  0.83333333  0.32500000  1.0
  V  V111  1  0.50000000  0.16666667  0.32500000  1.0
  V  V112  1  0.50000000  0.50000000  0.32500000  1.0
  V  V113  1  0.50000000  0.83333333  0.32500000  1.0
  V  V114  1  0.83333333  0.16666667  0.32500000  1.0
  V  V115  1  0.83333333  0.50000000  0.32500000  1.0
  V  V116  1  0.83333333  0.83333333  0.32500000  1.0
  Ni  Ni117  1  0.00000000  0.00000000  0.32500000  1.0
  Ni  Ni118  1  0.00000000  0.33333333  0.32500000  1.0
  Ni  Ni119  1  0.00000000  0.66666667  0.32500000  1.0
  Ni  Ni120  1  0.33333333  0.00000000  0.32500000  1.0
  Ni  Ni121  1  0.33333333  0.33333333  0.32500000  1.0
  Ni  Ni122  1  0.33333333  0.66666667  0.32500000  1.0
  Ni  Ni123  1  0.66666667  0.00000000  0.32500000  1.0
  Ni  Ni124  1  0.66666667  0.33333333  0.32500000  1.0
  Ni  Ni125  1  0.66666667  0.66666667  0.32500000  1.0
  V  V126  1  0.16666667  0.16666667  0.37500000  1.0
  V  V127  1  0.16666667  0.50000000  0.37500000  1.0
  V  V128  1  0.16666667  0.83333333  0.37500000  1.0
  V  V129  1  0.50000000  0.16666667  0.37500000  1.0
  V  V130  1  0.50000000  0.50000000  0.37500000  1.0
  V  V131  1  0.50000000  0.83333333  0.37500000  1.0
  V  V132  1  0.83333333  0.16666667  0.37500000  1.0
  V  V133  1  0.83333333  0.50000000  0.37500000  1.0
  V  V134  1  0.83333333  0.83333333  0.37500000  1.0
  Ni  Ni135  1  0.00000000  0.00000000  0.37500000  1.0
  Ni  Ni136  1  0.00000000  0.33333333  0.37500000  1.0
  Ni  Ni137  1  0.00000000  0.66666667  0.37500000  1.0
  Ni  Ni138  1  0.33333333  0.00000000  0.37500000  1.0
  Ni  Ni139  1  0.33333333  0.33333333  0.37500000  1.0
  Ni  Ni140  1  0.33333333  0.66666667  0.37500000  1.0
  Ni  Ni141  1  0.66666667  0.00000000  0.37500000  1.0
  Ni  Ni142  1  0.66666667  0.33333333  0.37500000  1.0
  Ni  Ni143  1  0.66666667  0.66666667  0.37500000  1.0
