# generated using pymatgen
data_VNi
_symmetry_space_group_name_H-M   'P 1'
_cell_length_a   7.65595139
_cell_length_b   17.29833058
_cell_length_c   35.97580000
_cell_angle_alpha   58.07988242
_cell_angle_beta   106.48381560
_cell_angle_gamma   77.21509229
_symmetry_Int_Tables_number   1
_chemical_formula_structural   VNi
_chemical_formula_sum   'V54 Ni54'
_cell_volume   3450.72645520
_cell_formula_units_Z   54
loop_
 _symmetry_equiv_pos_site_id
 _symmetry_equiv_pos_as_xyz
  1  'x, y, z'
loop_
 _atom_site_type_symbol
 _atom_site_label
 _atom_site_symmetry_multiplicity
 _atom_site_fract_x
 _atom_site_fract_y
 _atom_site_fract_z
 _atom_site_occupancy
  V  V0  1  0.16666667  0.08333333  0.01562500  1.0
  V  V1  1  0.16666667  0.41666667  0.01562500  1.0
  V  V2  1  0.16666667  0.75000000  0.01562500  1.0
  V  V3  1  0.50000000  0.08333333  0.01562500  1.0
  V  V4  1  0.50000000  0.41666667  0.01562500  1.0
  V  V5  1  0.50000000  0.75000000  0.01562500  1.0
  V  V6  1  0.83333333  0.08333333  0.01562500  1.0
  V  V7  1  0.83333333  0.41666667  0.01562500  1.0
  V  V8  1  0.83333333  0.75000000  0.01562500  1.0
  V  V9  1  0.16666667  0.25000000  0.07812500  1.0
  V  V10  1  0.16666667  0.58333333  0.07812500  1.0
  V  V11  1  0.16666667  0.91666667  0.07812500  1.0
  V  V12  1  0.50000000  0.25000000  0.07812500  1.0
  V  V13  1  0.50000000  0.58333333  0.07812500  1.0
  V  V14  1  0.50000000  0.91666667  0.07812500  1.0
  V  V15  1  0.83333333  0.25000000  0.07812500  1.0
  V  V16  1  0.83333333  0.58333333  0.07812500  1.0
  V  V17  1  0.83333333  0.91666667  0.07812500  1.0
  Ni  Ni18  1  0.00000000  0.00000000  0.10937500  1.0
  Ni  Ni19  1  0.00000000  0.33333333  0.10937500  1.0
  Ni  Ni20  1  0.00000000  0.66666667  0.10937500  1.0
  Ni  Ni21  1  0.33333333  0.00000000  0.10937500  1.0
  Ni  Ni22  1  0.33333333  0.33333333  0.10937500  1.0
  Ni  Ni23  1  0.33333333  0.66666667  0.10937500  1.0
  Ni  Ni24  1  0.66666667  0.00000000  0.10937500  1.0
  Ni  Ni25  1  0.66666667  0.33333333  0.10937500  1.0
  Ni  Ni26  1  0.66666667  0.66666667  0.10937500  1.0
  Ni  Ni27  1  0.00000000  0.16666667  0.04687500  1.0
  Ni  Ni28  1  0.00000000  0.50000000  0.04687500  1.0
  Ni  Ni29  1  0.00000000  0.83333333  0.04687500  1.0
  Ni  Ni30  1  0.33333333  0.16666667  0.04687500  1.0
  Ni  Ni31  1  0.33333333  0.50000000  0.04687500  1.0
  Ni  Ni32  1  0.33333333  0.83333333  0.04687500  1.0
  Ni  Ni33  1  0.66666667  0.16666667  0.04687500  1.0
  Ni  Ni34  1  0.66666667  0.50000000  0.04687500  1.0
  Ni  Ni35  1  0.66666667  0.83333333  0.04687500  1.0
  V  V36  1  0.16666667  0.08333333  0.14062500  1.0
  V  V37  1  0.16666667  0.41666667  0.14062500  1.0
  V  V38  1  0.16666667  0.75000000  0.14062500  1.0
  V  V39  1  0.50000000  0.08333333  0.14062500  1.0
  V  V40  1  0.50000000  0.41666667  0.14062500  1.0
  V  V41  1  0.50000000  0.75000000  0.14062500  1.0
  V  V42  1  0.83333333  0.08333333  0.14062500  1.0
  V  V43  1  0.83333333  0.41666667  0.14062500  1.0
  V  V44  1  0.83333333  0.75000000  0.14062500  1.0
  V  V45  1  0.16666667  0.25000000  0.20312500  1.0
  V  V46  1  0.16666667  0.58333333  0.20312500  1.0
  V  V47  1  0.16666667  0.91666667  0.20312500  1.0
  V  V48  1  0.50000000  0.25000000  0.20312500  1.0
  V  V49  1  0.50000000  0.58333333  0.20312500  1.0
  V  V50  1  0.50000000  0.91666667  0.20312500  1.0
  V  V51  1  0.83333333  0.25000000  0.20312500  1.0
  V  V52  1  0.83333333  0.58333333  0.20312500  1.0
  V  V53  1  0.83333333  0.91666667  0.20312500  1.0
  Ni  Ni54  1  0.00000000  0.00000000  0.23437500  1.0
  Ni  Ni55  1  0.00000000  0.33333333  0.23437500  1.0
  Ni  Ni56  1  0.00000000  0.66666667  0.23437500  1.0
  Ni  Ni57  1  0.33333333  0.00000000  0.23437500  1.0
  Ni  Ni58  1  0.33333333  0.33333333  0.23437500  1.0
  Ni  Ni59  1  0.33333333  0.66666667  0.23437500  1.0
  Ni  Ni60  1  0.66666667  0.00000000  0.23437500  1.0
  Ni  Ni61  1  0.66666667  0.33333333  0.23437500  1.0
  Ni  Ni62  1  0.66666667  0.66666667  0.23437500  1.0
  Ni  Ni63  1  0.00000000  0.16666667  0.17187500  1.0
  Ni  Ni64  1  0.00000000  0.50000000  0.17187500  1.0
  Ni  Ni65  1  0.00000000  0.83333333  0.17187500  1.0
  Ni  Ni66  1  0.33333333  0.16666667  0.17187500  1.0
  Ni  Ni67  1  0.33333333  0.50000000  0.17187500  1.0
  Ni  Ni68  1  0.33333333  0.83333333  0.17187500  1.0
  Ni  Ni69  1  0.66666667  0.16666667  0.17187500  1.0
  Ni  Ni70  1  0.66666667  0.50000000  0.17187500  1.0
  Ni  Ni71  1  0.66666667  0.83333333  0.17187500  1.0
  V  V72  1  0.16666667  0.08333333  0.26562500  1.0
  V  V73  1  0.16666667  0.41666667  0.26562500  1.0
  V  V74  1  0.16666667  0.75000000  0.26562500  1.0
  V  V75  1  0.50000000  0.08333333  0.26562500  1.0
  V  V76  1  0.50000000  0.41666667  0.26562500  1.0
  V  V77  1  0.50000000  0.75000000  0.26562500  1.0
  V  V78  1  0.83333333  0.08333333  0.26562500  1.0
  V  V79  1  0.83333333  0.41666667  0.26562500  1.0
  V  V80  1  0.83333333  0.75000000  0.26562500  1.0
  V  V81  1  0.16666667  0.25000000  0.32812500  1.0
  V  V82  1  0.16666667  0.58333333  0.32812500  1.0
  V  V83  1  0.16666667  0.91666667  0.32812500  1.0
  V  V84  1  0.50000000  0.25000000  0.32812500  1.0
  V  V85  1  0.50000000  0.58333333  0.32812500  1.0
  V  V86  1  0.50000000  0.91666667  0.32812500  1.0
  V  V87  1  0.83333333  0.25000000  0.32812500  1.0
  V  V88  1  0.83333333  0.58333333  0.32812500  1.0
  V  V89  1  0.83333333  0.91666667  0.32812500  1.0
  Ni  Ni90  1  0.00000000  0.00000000  0.35937500  1.0
  Ni  Ni91  1  0.00000000  0.33333333  0.35937500  1.0
  Ni  Ni92  1  0.00000000  0.66666667  0.35937500  1.0
  Ni  Ni93  1  0.33333333  0.00000000  0.35937500  1.0
  Ni  Ni94  1  0.33333333  0.33333333  0.35937500  1.0
  Ni  Ni95  1  0.33333333  0.66666667  0.35937500  1.0
  Ni  Ni96  1  0.66666667  0.00000000  0.35937500  1.0
  Ni  Ni97  1  0.66666667  0.33333333  0.35937500  1.0
  Ni  Ni98  1  0.66666667  0.66666667  0.35937500  1.0
  Ni  Ni99  1  0.00000000  0.16666667  0.29687500  1.0
  Ni  Ni100  1  0.00000000  0.50000000  0.29687500  1.0
  Ni  Ni101  1  0.00000000  0.83333333  0.29687500  1.0
  Ni  Ni102  1  0.33333333  0.16666667  0.29687500  1.0
  Ni  Ni103  1  0.33333333  0.50000000  0.29687500  1.0
  Ni  Ni104  1  0.33333333  0.83333333  0.29687500  1.0
  Ni  Ni105  1  0.66666667  0.16666667  0.29687500  1.0
  Ni  Ni106  1  0.66666667  0.50000000  0.29687500  1.0
  Ni  Ni107  1  0.66666667  0.83333333  0.29687500  1.0
