# generated using pymatgen
data_VNi
_symmetry_space_group_name_H-M   'P 1'
_cell_length_a   13.49092500
_cell_length_b   38.99767086
_cell_length_c   67.45462500
_cell_angle_alpha   22.11698785
_cell_angle_beta   32.96763120
_cell_angle_gamma   29.45841772
_symmetry_Int_Tables_number   1
_chemical_formula_structural   VNi
_chemical_formula_sum   'V108 Ni108'
_cell_volume   6470.11210350
_cell_formula_units_Z   108
loop_
 _symmetry_equiv_pos_site_id
 _symmetry_equiv_pos_as_xyz
  1  'x, y, z'
loop_
 _atom_site_type_symbol
 _atom_site_label
 _atom_site_symmetry_multiplicity
 _atom_site_fract_x
 _atom_site_fract_y
 _atom_site_fract_z
 _atom_site_occupancy
  V  V0  1  0.16666667  0.08333333  0.00833333  1.0
  V  V1  1  0.16666667  0.41666667  0.00833333  1.0
  V  V2  1  0.16666667  0.75000000  0.00833333  1.0
  V  V3  1  0.50000000  0.08333333  0.00833333  1.0
  V  V4  1  0.50000000  0.41666667  0.00833333  1.0
  V  V5  1  0.50000000  0.75000000  0.00833333  1.0
  V  V6  1  0.83333333  0.08333333  0.00833333  1.0
  V  V7  1  0.83333333  0.41666667  0.00833333  1.0
  V  V8  1  0.83333333  0.75000000  0.00833333  1.0
  V  V9  1  0.16666667  0.25000000  0.04166667  1.0
  V  V10  1  0.16666667  0.58333333  0.04166667  1.0
  V  V11  1  0.16666667  0.91666667  0.04166667  1.0
  V  V12  1  0.50000000  0.25000000  0.04166667  1.0
  V  V13  1  0.50000000  0.58333333  0.04166667  1.0
  V  V14  1  0.50000000  0.91666667  0.04166667  1.0
  V  V15  1  0.83333333  0.25000000  0.04166667  1.0
  V  V16  1  0.83333333  0.58333333  0.04166667  1.0
  V  V17  1  0.83333333  0.91666667  0.04166667  1.0
  Ni  Ni18  1  0.00000000  0.00000000  0.05833333  1.0
  Ni  Ni19  1  0.00000000  0.33333333  0.05833333  1.0
  Ni  Ni20  1  0.00000000  0.66666667  0.05833333  1.0
  Ni  Ni21  1  0.33333333  0.00000000  0.05833333  1.0
  Ni  Ni22  1  0.33333333  0.33333333  0.05833333  1.0
  Ni  Ni23  1  0.33333333  0.66666667  0.05833333  1.0
  Ni  Ni24  1  0.66666667  0.00000000  0.05833333  1.0
  Ni  Ni25  1  0.66666667  0.33333333  0.05833333  1.0
  Ni  Ni26  1  0.66666667  0.66666667  0.05833333  1.0
  Ni  Ni27  1  0.00000000  0.16666667  0.02500000  1.0
  Ni  Ni28  1  0.00000000  0.50000000  0.02500000  1.0
  Ni  Ni29  1  1.00000000  0.83333333  0.02500000  1.0
  Ni  Ni30  1  0.33333333  0.16666667  0.02500000  1.0
  Ni  Ni31  1  0.33333333  0.50000000  0.02500000  1.0
  Ni  Ni32  1  0.33333333  0.83333333  0.02500000  1.0
  Ni  Ni33  1  0.66666667  0.16666667  0.02500000  1.0
  Ni  Ni34  1  0.66666667  0.50000000  0.02500000  1.0
  Ni  Ni35  1  0.66666667  0.83333333  0.02500000  1.0
  V  V36  1  0.16666667  0.08333333  0.07500000  1.0
  V  V37  1  0.16666667  0.41666667  0.07500000  1.0
  V  V38  1  0.16666667  0.75000000  0.07500000  1.0
  V  V39  1  0.50000000  0.08333333  0.07500000  1.0
  V  V40  1  0.50000000  0.41666667  0.07500000  1.0
  V  V41  1  0.50000000  0.75000000  0.07500000  1.0
  V  V42  1  0.83333333  0.08333333  0.07500000  1.0
  V  V43  1  0.83333333  0.41666667  0.07500000  1.0
  V  V44  1  0.83333333  0.75000000  0.07500000  1.0
  V  V45  1  0.16666667  0.25000000  0.10833333  1.0
  V  V46  1  0.16666667  0.58333333  0.10833333  1.0
  V  V47  1  0.16666667  0.91666667  0.10833333  1.0
  V  V48  1  0.50000000  0.25000000  0.10833333  1.0
  V  V49  1  0.50000000  0.58333333  0.10833333  1.0
  V  V50  1  0.50000000  0.91666667  0.10833333  1.0
  V  V51  1  0.83333333  0.25000000  0.10833333  1.0
  V  V52  1  0.83333333  0.58333333  0.10833333  1.0
  V  V53  1  0.83333333  0.91666667  0.10833333  1.0
  Ni  Ni54  1  0.00000000  0.00000000  0.12500000  1.0
  Ni  Ni55  1  0.00000000  0.33333333  0.12500000  1.0
  Ni  Ni56  1  0.00000000  0.66666667  0.12500000  1.0
  Ni  Ni57  1  0.33333333  0.00000000  0.12500000  1.0
  Ni  Ni58  1  0.33333333  0.33333333  0.12500000  1.0
  Ni  Ni59  1  0.33333333  0.66666667  0.12500000  1.0
  Ni  Ni60  1  0.66666667  0.00000000  0.12500000  1.0
  Ni  Ni61  1  0.66666667  0.33333333  0.12500000  1.0
  Ni  Ni62  1  0.66666667  0.66666667  0.12500000  1.0
  Ni  Ni63  1  0.00000000  0.16666667  0.09166667  1.0
  Ni  Ni64  1  0.00000000  0.50000000  0.09166667  1.0
  Ni  Ni65  1  1.00000000  0.83333333  0.09166667  1.0
  Ni  Ni66  1  0.33333333  0.16666667  0.09166667  1.0
  Ni  Ni67  1  0.33333333  0.50000000  0.09166667  1.0
  Ni  Ni68  1  0.33333333  0.83333333  0.09166667  1.0
  Ni  Ni69  1  0.66666667  0.16666667  0.09166667  1.0
  Ni  Ni70  1  0.66666667  0.50000000  0.09166667  1.0
  Ni  Ni71  1  0.66666667  0.83333333  0.09166667  1.0
  V  V72  1  0.16666667  0.08333333  0.14166667  1.0
  V  V73  1  0.16666667  0.41666667  0.14166667  1.0
  V  V74  1  0.16666667  0.75000000  0.14166667  1.0
  V  V75  1  0.50000000  0.08333333  0.14166667  1.0
  V  V76  1  0.50000000  0.41666667  0.14166667  1.0
  V  V77  1  0.50000000  0.75000000  0.14166667  1.0
  V  V78  1  0.83333333  0.08333333  0.14166667  1.0
  V  V79  1  0.83333333  0.41666667  0.14166667  1.0
  V  V80  1  0.83333333  0.75000000  0.14166667  1.0
  V  V81  1  0.16666667  0.25000000  0.17500000  1.0
  V  V82  1  0.16666667  0.58333333  0.17500000  1.0
  V  V83  1  0.16666667  0.91666667  0.17500000  1.0
  V  V84  1  0.50000000  0.25000000  0.17500000  1.0
  V  V85  1  0.50000000  0.58333333  0.17500000  1.0
  V  V86  1  0.50000000  0.91666667  0.17500000  1.0
  V  V87  1  0.83333333  0.25000000  0.17500000  1.0
  V  V88  1  0.83333333  0.58333333  0.17500000  1.0
  V  V89  1  0.83333333  0.91666667  0.17500000  1.0
  Ni  Ni90  1  0.00000000  0.00000000  0.19166667  1.0
  Ni  Ni91  1  0.00000000  0.33333333  0.19166667  1.0
  Ni  Ni92  1  0.00000000  0.66666667  0.19166667  1.0
  Ni  Ni93  1  0.33333333  0.00000000  0.19166667  1.0
  Ni  Ni94  1  0.33333333  0.33333333  0.19166667  1.0
  Ni  Ni95  1  0.33333333  0.66666667  0.19166667  1.0
  Ni  Ni96  1  0.66666667  0.00000000  0.19166667  1.0
  Ni  Ni97  1  0.66666667  0.33333333  0.19166667  1.0
  Ni  Ni98  1  0.66666667  0.66666667  0.19166667  1.0
  Ni  Ni99  1  0.00000000  0.16666667  0.15833333  1.0
  Ni  Ni100  1  0.00000000  0.50000000  0.15833333  1.0
  Ni  Ni101  1  1.00000000  0.83333333  0.15833333  1.0
  Ni  Ni102  1  0.33333333  0.16666667  0.15833333  1.0
  Ni  Ni103  1  0.33333333  0.50000000  0.15833333  1.0
  Ni  Ni104  1  0.33333333  0.83333333  0.15833333  1.0
  Ni  Ni105  1  0.66666667  0.16666667  0.15833333  1.0
  Ni  Ni106  1  0.66666667  0.50000000  0.15833333  1.0
  Ni  Ni107  1  0.66666667  0.83333333  0.15833333  1.0
  V  V108  1  0.16666667  0.08333333  0.20833333  1.0
  V  V109  1  0.16666667  0.41666667  0.20833333  1.0
  V  V110  1  0.16666667  0.75000000  0.20833333  1.0
  V  V111  1  0.50000000  0.08333333  0.20833333  1.0
  V  V112  1  0.50000000  0.41666667  0.20833333  1.0
  V  V113  1  0.50000000  0.75000000  0.20833333  1.0
  V  V114  1  0.83333333  0.08333333  0.20833333  1.0
  V  V115  1  0.83333333  0.41666667  0.20833333  1.0
  V  V116  1  0.83333333  0.75000000  0.20833333  1.0
  V  V117  1  0.16666667  0.25000000  0.24166667  1.0
  V  V118  1  0.16666667  0.58333333  0.24166667  1.0
  V  V119  1  0.16666667  0.91666667  0.24166667  1.0
  V  V120  1  0.50000000  0.25000000  0.24166667  1.0
  V  V121  1  0.50000000  0.58333333  0.24166667  1.0
  V  V122  1  0.50000000  0.91666667  0.24166667  1.0
  V  V123  1  0.83333333  0.25000000  0.24166667  1.0
  V  V124  1  0.83333333  0.58333333  0.24166667  1.0
  V  V125  1  0.83333333  0.91666667  0.24166667  1.0
  Ni  Ni126  1  0.00000000  0.00000000  0.25833333  1.0
  Ni  Ni127  1  0.00000000  0.33333333  0.25833333  1.0
  Ni  Ni128  1  0.00000000  0.66666667  0.25833333  1.0
  Ni  Ni129  1  0.33333333  0.00000000  0.25833333  1.0
  Ni  Ni130  1  0.33333333  0.33333333  0.25833333  1.0
  Ni  Ni131  1  0.33333333  0.66666667  0.25833333  1.0
  Ni  Ni132  1  0.66666667  0.00000000  0.25833333  1.0
  Ni  Ni133  1  0.66666667  0.33333333  0.25833333  1.0
  Ni  Ni134  1  0.66666667  0.66666667  0.25833333  1.0
  Ni  Ni135  1  0.00000000  0.16666667  0.22500000  1.0
  Ni  Ni136  1  0.00000000  0.50000000  0.22500000  1.0
  Ni  Ni137  1  1.00000000  0.83333333  0.22500000  1.0
  Ni  Ni138  1  0.33333333  0.16666667  0.22500000  1.0
  Ni  Ni139  1  0.33333333  0.50000000  0.22500000  1.0
  Ni  Ni140  1  0.33333333  0.83333333  0.22500000  1.0
  Ni  Ni141  1  0.66666667  0.16666667  0.22500000  1.0
  Ni  Ni142  1  0.66666667  0.50000000  0.22500000  1.0
  Ni  Ni143  1  0.66666667  0.83333333  0.22500000  1.0
  V  V144  1  0.16666667  0.08333333  0.27500000  1.0
  V  V145  1  0.16666667  0.41666667  0.27500000  1.0
  V  V146  1  0.16666667  0.75000000  0.27500000  1.0
  V  V147  1  0.50000000  0.08333333  0.27500000  1.0
  V  V148  1  0.50000000  0.41666667  0.27500000  1.0
  V  V149  1  0.50000000  0.75000000  0.27500000  1.0
  V  V150  1  0.83333333  0.08333333  0.27500000  1.0
  V  V151  1  0.83333333  0.41666667  0.27500000  1.0
  V  V152  1  0.83333333  0.75000000  0.27500000  1.0
  V  V153  1  0.16666667  0.25000000  0.30833333  1.0
  V  V154  1  0.16666667  0.58333333  0.30833333  1.0
  V  V155  1  0.16666667  0.91666667  0.30833333  1.0
  V  V156  1  0.50000000  0.25000000  0.30833333  1.0
  V  V157  1  0.50000000  0.58333333  0.30833333  1.0
  V  V158  1  0.50000000  0.91666667  0.30833333  1.0
  V  V159  1  0.83333333  0.25000000  0.30833333  1.0
  V  V160  1  0.83333333  0.58333333  0.30833333  1.0
  V  V161  1  0.83333333  0.91666667  0.30833333  1.0
  Ni  Ni162  1  0.00000000  0.00000000  0.32500000  1.0
  Ni  Ni163  1  0.00000000  0.33333333  0.32500000  1.0
  Ni  Ni164  1  0.00000000  0.66666667  0.32500000  1.0
  Ni  Ni165  1  0.33333333  0.00000000  0.32500000  1.0
  Ni  Ni166  1  0.33333333  0.33333333  0.32500000  1.0
  Ni  Ni167  1  0.33333333  0.66666667  0.32500000  1.0
  Ni  Ni168  1  0.66666667  0.00000000  0.32500000  1.0
  Ni  Ni169  1  0.66666667  0.33333333  0.32500000  1.0
  Ni  Ni170  1  0.66666667  0.66666667  0.32500000  1.0
  Ni  Ni171  1  0.00000000  0.16666667  0.29166667  1.0
  Ni  Ni172  1  0.00000000  0.50000000  0.29166667  1.0
  Ni  Ni173  1  1.00000000  0.83333333  0.29166667  1.0
  Ni  Ni174  1  0.33333333  0.16666667  0.29166667  1.0
  Ni  Ni175  1  0.33333333  0.50000000  0.29166667  1.0
  Ni  Ni176  1  0.33333333  0.83333333  0.29166667  1.0
  Ni  Ni177  1  0.66666667  0.16666667  0.29166667  1.0
  Ni  Ni178  1  0.66666667  0.50000000  0.29166667  1.0
  Ni  Ni179  1  0.66666667  0.83333333  0.29166667  1.0
  V  V180  1  0.16666667  0.08333333  0.34166667  1.0
  V  V181  1  0.16666667  0.41666667  0.34166667  1.0
  V  V182  1  0.16666667  0.75000000  0.34166667  1.0
  V  V183  1  0.50000000  0.08333333  0.34166667  1.0
  V  V184  1  0.50000000  0.41666667  0.34166667  1.0
  V  V185  1  0.50000000  0.75000000  0.34166667  1.0
  V  V186  1  0.83333333  0.08333333  0.34166667  1.0
  V  V187  1  0.83333333  0.41666667  0.34166667  1.0
  V  V188  1  0.83333333  0.75000000  0.34166667  1.0
  V  V189  1  0.16666667  0.25000000  0.37500000  1.0
  V  V190  1  0.16666667  0.58333333  0.37500000  1.0
  V  V191  1  0.16666667  0.91666667  0.37500000  1.0
  V  V192  1  0.50000000  0.25000000  0.37500000  1.0
  V  V193  1  0.50000000  0.58333333  0.37500000  1.0
  V  V194  1  0.50000000  0.91666667  0.37500000  1.0
  V  V195  1  0.83333333  0.25000000  0.37500000  1.0
  V  V196  1  0.83333333  0.58333333  0.37500000  1.0
  V  V197  1  0.83333333  0.91666667  0.37500000  1.0
  Ni  Ni198  1  0.00000000  0.00000000  0.39166667  1.0
  Ni  Ni199  1  0.00000000  0.33333333  0.39166667  1.0
  Ni  Ni200  1  0.00000000  0.66666667  0.39166667  1.0
  Ni  Ni201  1  0.33333333  0.00000000  0.39166667  1.0
  Ni  Ni202  1  0.33333333  0.33333333  0.39166667  1.0
  Ni  Ni203  1  0.33333333  0.66666667  0.39166667  1.0
  Ni  Ni204  1  0.66666667  0.00000000  0.39166667  1.0
  Ni  Ni205  1  0.66666667  0.33333333  0.39166667  1.0
  Ni  Ni206  1  0.66666667  0.66666667  0.39166667  1.0
  Ni  Ni207  1  0.00000000  0.16666667  0.35833333  1.0
  Ni  Ni208  1  0.00000000  0.50000000  0.35833333  1.0
  Ni  Ni209  1  1.00000000  0.83333333  0.35833333  1.0
  Ni  Ni210  1  0.33333333  0.16666667  0.35833333  1.0
  Ni  Ni211  1  0.33333333  0.50000000  0.35833333  1.0
  Ni  Ni212  1  0.33333333  0.83333333  0.35833333  1.0
  Ni  Ni213  1  0.66666667  0.16666667  0.35833333  1.0
  Ni  Ni214  1  0.66666667  0.50000000  0.35833333  1.0
  Ni  Ni215  1  0.66666667  0.83333333  0.35833333  1.0
