# generated using pymatgen
data_VNi
_symmetry_space_group_name_H-M   'P 1'
_cell_length_a   7.65595139
_cell_length_b   15.51188735
_cell_length_c   29.06155967
_cell_angle_alpha   91.04468267
_cell_angle_beta   90.00000000
_cell_angle_gamma   90.00000000
_symmetry_Int_Tables_number   1
_chemical_formula_structural   VNi
_chemical_formula_sum   'V54 Ni54'
_cell_volume   3450.72645520
_cell_formula_units_Z   54
loop_
 _symmetry_equiv_pos_site_id
 _symmetry_equiv_pos_as_xyz
  1  'x, y, z'
loop_
 _atom_site_type_symbol
 _atom_site_label
 _atom_site_symmetry_multiplicity
 _atom_site_fract_x
 _atom_site_fract_y
 _atom_site_fract_z
 _atom_site_occupancy
  Ni  Ni0  1  0.00000000  0.12500000  0.90625000  1.0
  Ni  Ni1  1  0.00000000  0.45833333  0.90625000  1.0
  Ni  Ni2  1  0.00000000  0.79166667  0.90625000  1.0
  Ni  Ni3  1  0.33333333  0.12500000  0.90625000  1.0
  Ni  Ni4  1  0.33333333  0.45833333  0.90625000  1.0
  Ni  Ni5  1  0.33333333  0.79166667  0.90625000  1.0
  Ni  Ni6  1  0.66666667  0.12500000  0.90625000  1.0
  Ni  Ni7  1  0.66666667  0.45833333  0.90625000  1.0
  Ni  Ni8  1  0.66666667  0.79166667  0.90625000  1.0
  Ni  Ni9  1  0.16666667  0.20833333  0.96875000  1.0
  Ni  Ni10  1  0.16666667  0.54166667  0.96875000  1.0
  Ni  Ni11  1  0.16666667  0.87500000  0.96875000  1.0
  Ni  Ni12  1  0.50000000  0.20833333  0.96875000  1.0
  Ni  Ni13  1  0.50000000  0.54166667  0.96875000  1.0
  Ni  Ni14  1  0.50000000  0.87500000  0.96875000  1.0
  Ni  Ni15  1  0.83333333  0.20833333  0.96875000  1.0
  Ni  Ni16  1  0.83333333  0.54166667  0.96875000  1.0
  Ni  Ni17  1  0.83333333  0.87500000  0.96875000  1.0
  Ni  Ni18  1  0.00000000  0.29166667  0.78125000  1.0
  Ni  Ni19  1  0.00000000  0.62500000  0.78125000  1.0
  Ni  Ni20  1  0.00000000  0.95833333  0.78125000  1.0
  Ni  Ni21  1  0.33333333  0.29166667  0.78125000  1.0
  Ni  Ni22  1  0.33333333  0.62500000  0.78125000  1.0
  Ni  Ni23  1  0.33333333  0.95833333  0.78125000  1.0
  Ni  Ni24  1  0.66666667  0.29166667  0.78125000  1.0
  Ni  Ni25  1  0.66666667  0.62500000  0.78125000  1.0
  Ni  Ni26  1  0.66666667  0.95833333  0.78125000  1.0
  Ni  Ni27  1  0.16666667  0.04166667  0.84375000  1.0
  Ni  Ni28  1  0.16666667  0.37500000  0.84375000  1.0
  Ni  Ni29  1  0.16666667  0.70833333  0.84375000  1.0
  Ni  Ni30  1  0.50000000  0.04166667  0.84375000  1.0
  Ni  Ni31  1  0.50000000  0.37500000  0.84375000  1.0
  Ni  Ni32  1  0.50000000  0.70833333  0.84375000  1.0
  Ni  Ni33  1  0.83333333  0.04166667  0.84375000  1.0
  Ni  Ni34  1  0.83333333  0.37500000  0.84375000  1.0
  Ni  Ni35  1  0.83333333  0.70833333  0.84375000  1.0
  Ni  Ni36  1  0.00000000  0.12500000  0.65625000  1.0
  Ni  Ni37  1  0.00000000  0.45833333  0.65625000  1.0
  Ni  Ni38  1  0.00000000  0.79166667  0.65625000  1.0
  Ni  Ni39  1  0.33333333  0.12500000  0.65625000  1.0
  Ni  Ni40  1  0.33333333  0.45833333  0.65625000  1.0
  Ni  Ni41  1  0.33333333  0.79166667  0.65625000  1.0
  Ni  Ni42  1  0.66666667  0.12500000  0.65625000  1.0
  Ni  Ni43  1  0.66666667  0.45833333  0.65625000  1.0
  Ni  Ni44  1  0.66666667  0.79166667  0.65625000  1.0
  Ni  Ni45  1  0.16666667  0.20833333  0.71875000  1.0
  Ni  Ni46  1  0.16666667  0.54166667  0.71875000  1.0
  Ni  Ni47  1  0.16666667  0.87500000  0.71875000  1.0
  Ni  Ni48  1  0.50000000  0.20833333  0.71875000  1.0
  Ni  Ni49  1  0.50000000  0.54166667  0.71875000  1.0
  Ni  Ni50  1  0.50000000  0.87500000  0.71875000  1.0
  Ni  Ni51  1  0.83333333  0.20833333  0.71875000  1.0
  Ni  Ni52  1  0.83333333  0.54166667  0.71875000  1.0
  Ni  Ni53  1  0.83333333  0.87500000  0.71875000  1.0
  V  V54  1  0.33333333  0.29166667  0.90625000  1.0
  V  V55  1  0.33333333  0.62500000  0.90625000  1.0
  V  V56  1  0.33333333  0.95833333  0.90625000  1.0
  V  V57  1  0.66666667  0.29166667  0.90625000  1.0
  V  V58  1  0.66666667  0.62500000  0.90625000  1.0
  V  V59  1  0.66666667  0.95833333  0.90625000  1.0
  V  V60  1  0.00000000  0.29166667  0.90625000  1.0
  V  V61  1  0.00000000  0.62500000  0.90625000  1.0
  V  V62  1  0.00000000  0.95833333  0.90625000  1.0
  V  V63  1  0.16666667  0.04166667  0.96875000  1.0
  V  V64  1  0.16666667  0.37500000  0.96875000  1.0
  V  V65  1  0.16666667  0.70833333  0.96875000  1.0
  V  V66  1  0.50000000  0.04166667  0.96875000  1.0
  V  V67  1  0.50000000  0.37500000  0.96875000  1.0
  V  V68  1  0.50000000  0.70833333  0.96875000  1.0
  V  V69  1  0.83333333  0.04166667  0.96875000  1.0
  V  V70  1  0.83333333  0.37500000  0.96875000  1.0
  V  V71  1  0.83333333  0.70833333  0.96875000  1.0
  V  V72  1  0.00000000  0.12500000  0.78125000  1.0
  V  V73  1  0.00000000  0.45833333  0.78125000  1.0
  V  V74  1  0.00000000  0.79166667  0.78125000  1.0
  V  V75  1  0.33333333  0.12500000  0.78125000  1.0
  V  V76  1  0.33333333  0.45833333  0.78125000  1.0
  V  V77  1  0.33333333  0.79166667  0.78125000  1.0
  V  V78  1  0.66666667  0.12500000  0.78125000  1.0
  V  V79  1  0.66666667  0.45833333  0.78125000  1.0
  V  V80  1  0.66666667  0.79166667  0.78125000  1.0
  V  V81  1  0.16666667  0.20833333  0.84375000  1.0
  V  V82  1  0.16666667  0.54166667  0.84375000  1.0
  V  V83  1  0.16666667  0.87500000  0.84375000  1.0
  V  V84  1  0.50000000  0.20833333  0.84375000  1.0
  V  V85  1  0.50000000  0.54166667  0.84375000  1.0
  V  V86  1  0.50000000  0.87500000  0.84375000  1.0
  V  V87  1  0.83333333  0.20833333  0.84375000  1.0
  V  V88  1  0.83333333  0.54166667  0.84375000  1.0
  V  V89  1  0.83333333  0.87500000  0.84375000  1.0
  V  V90  1  0.33333333  0.29166667  0.65625000  1.0
  V  V91  1  0.33333333  0.62500000  0.65625000  1.0
  V  V92  1  0.33333333  0.95833333  0.65625000  1.0
  V  V93  1  0.66666667  0.29166667  0.65625000  1.0
  V  V94  1  0.66666667  0.62500000  0.65625000  1.0
  V  V95  1  0.66666667  0.95833333  0.65625000  1.0
  V  V96  1  0.00000000  0.29166667  0.65625000  1.0
  V  V97  1  0.00000000  0.62500000  0.65625000  1.0
  V  V98  1  0.00000000  0.95833333  0.65625000  1.0
  V  V99  1  0.16666667  0.04166667  0.71875000  1.0
  V  V100  1  0.16666667  0.37500000  0.71875000  1.0
  V  V101  1  0.16666667  0.70833333  0.71875000  1.0
  V  V102  1  0.50000000  0.04166667  0.71875000  1.0
  V  V103  1  0.50000000  0.37500000  0.71875000  1.0
  V  V104  1  0.50000000  0.70833333  0.71875000  1.0
  V  V105  1  0.83333333  0.04166667  0.71875000  1.0
  V  V106  1  0.83333333  0.37500000  0.71875000  1.0
  V  V107  1  0.83333333  0.70833333  0.71875000  1.0
