# generated using pymatgen
data_VNi
_symmetry_space_group_name_H-M   'P 1'
_cell_length_a   15.51188735
_cell_length_b   17.29833058
_cell_length_c   28.31496671
_cell_angle_alpha   94.81701489
_cell_angle_beta   92.28126221
_cell_angle_gamma   103.96985997
_symmetry_Int_Tables_number   1
_chemical_formula_structural   VNi
_chemical_formula_sum   'V126 Ni126'
_cell_volume   7332.79371730
_cell_formula_units_Z   126
loop_
 _symmetry_equiv_pos_site_id
 _symmetry_equiv_pos_as_xyz
  1  'x, y, z'
loop_
 _atom_site_type_symbol
 _atom_site_label
 _atom_site_symmetry_multiplicity
 _atom_site_fract_x
 _atom_site_fract_y
 _atom_site_fract_z
 _atom_site_occupancy
  Ni  Ni0  1  0.27450980  0.18627451  0.98529412  1.0
  Ni  Ni1  1  0.27450980  0.51960784  0.98529412  1.0
  Ni  Ni2  1  0.27450980  0.85294118  0.98529412  1.0
  Ni  Ni3  1  0.60784314  0.18627451  0.98529412  1.0
  Ni  Ni4  1  0.60784314  0.51960784  0.98529412  1.0
  Ni  Ni5  1  0.60784314  0.85294118  0.98529412  1.0
  Ni  Ni6  1  0.94117647  0.18627451  0.98529412  1.0
  Ni  Ni7  1  0.94117647  0.51960784  0.98529412  1.0
  Ni  Ni8  1  0.94117647  0.85294118  0.98529412  1.0
  Ni  Ni9  1  0.15686275  0.05882353  0.95588235  1.0
  Ni  Ni10  1  0.15686275  0.39215686  0.95588235  1.0
  Ni  Ni11  1  0.15686275  0.72549020  0.95588235  1.0
  Ni  Ni12  1  0.49019608  0.05882353  0.95588235  1.0
  Ni  Ni13  1  0.49019608  0.39215686  0.95588235  1.0
  Ni  Ni14  1  0.49019608  0.72549020  0.95588235  1.0
  Ni  Ni15  1  0.82352941  0.05882353  0.95588235  1.0
  Ni  Ni16  1  0.82352941  0.39215686  0.95588235  1.0
  Ni  Ni17  1  0.82352941  0.72549020  0.95588235  1.0
  Ni  Ni18  1  0.03921569  0.26470588  0.92647059  1.0
  Ni  Ni19  1  0.03921569  0.59803922  0.92647059  1.0
  Ni  Ni20  1  0.03921569  0.93137255  0.92647059  1.0
  Ni  Ni21  1  0.37254902  0.26470588  0.92647059  1.0
  Ni  Ni22  1  0.37254902  0.59803922  0.92647059  1.0
  Ni  Ni23  1  0.37254902  0.93137255  0.92647059  1.0
  Ni  Ni24  1  0.70588235  0.26470588  0.92647059  1.0
  Ni  Ni25  1  0.70588235  0.59803922  0.92647059  1.0
  Ni  Ni26  1  0.70588235  0.93137255  0.92647059  1.0
  Ni  Ni27  1  0.25490196  0.13725490  0.89705882  1.0
  Ni  Ni28  1  0.25490196  0.47058824  0.89705882  1.0
  Ni  Ni29  1  0.25490196  0.80392157  0.89705882  1.0
  Ni  Ni30  1  0.58823529  0.13725490  0.89705882  1.0
  Ni  Ni31  1  0.58823529  0.47058824  0.89705882  1.0
  Ni  Ni32  1  0.58823529  0.80392157  0.89705882  1.0
  Ni  Ni33  1  0.92156863  0.13725490  0.89705882  1.0
  Ni  Ni34  1  0.92156863  0.47058824  0.89705882  1.0
  Ni  Ni35  1  0.92156863  0.80392157  0.89705882  1.0
  Ni  Ni36  1  0.13725490  0.00980392  0.86764706  1.0
  Ni  Ni37  1  0.13725490  0.34313725  0.86764706  1.0
  Ni  Ni38  1  0.13725490  0.67647059  0.86764706  1.0
  Ni  Ni39  1  0.47058824  0.00980392  0.86764706  1.0
  Ni  Ni40  1  0.47058824  0.34313725  0.86764706  1.0
  Ni  Ni41  1  0.47058824  0.67647059  0.86764706  1.0
  Ni  Ni42  1  0.80392157  0.00980392  0.86764706  1.0
  Ni  Ni43  1  0.80392157  0.34313725  0.86764706  1.0
  Ni  Ni44  1  0.80392157  0.67647059  0.86764706  1.0
  Ni  Ni45  1  0.01960784  0.21568627  0.83823529  1.0
  Ni  Ni46  1  0.01960784  0.54901961  0.83823529  1.0
  Ni  Ni47  1  0.01960784  0.88235294  0.83823529  1.0
  Ni  Ni48  1  0.35294118  0.21568627  0.83823529  1.0
  Ni  Ni49  1  0.35294118  0.54901961  0.83823529  1.0
  Ni  Ni50  1  0.35294118  0.88235294  0.83823529  1.0
  Ni  Ni51  1  0.68627451  0.21568627  0.83823529  1.0
  Ni  Ni52  1  0.68627451  0.54901961  0.83823529  1.0
  Ni  Ni53  1  0.68627451  0.88235294  0.83823529  1.0
  Ni  Ni54  1  0.23529412  0.08823529  0.80882353  1.0
  Ni  Ni55  1  0.23529412  0.42156863  0.80882353  1.0
  Ni  Ni56  1  0.23529412  0.75490196  0.80882353  1.0
  Ni  Ni57  1  0.56862745  0.08823529  0.80882353  1.0
  Ni  Ni58  1  0.56862745  0.42156863  0.80882353  1.0
  Ni  Ni59  1  0.56862745  0.75490196  0.80882353  1.0
  Ni  Ni60  1  0.90196078  0.08823529  0.80882353  1.0
  Ni  Ni61  1  0.90196078  0.42156863  0.80882353  1.0
  Ni  Ni62  1  0.90196078  0.75490196  0.80882353  1.0
  Ni  Ni63  1  0.11764706  0.29411765  0.77941176  1.0
  Ni  Ni64  1  0.11764706  0.62745098  0.77941176  1.0
  Ni  Ni65  1  0.11764706  0.96078431  0.77941176  1.0
  Ni  Ni66  1  0.45098039  0.29411765  0.77941176  1.0
  Ni  Ni67  1  0.45098039  0.62745098  0.77941176  1.0
  Ni  Ni68  1  0.45098039  0.96078431  0.77941176  1.0
  Ni  Ni69  1  0.78431373  0.29411765  0.77941176  1.0
  Ni  Ni70  1  0.78431373  0.62745098  0.77941176  1.0
  Ni  Ni71  1  0.78431373  0.96078431  0.77941176  1.0
  Ni  Ni72  1  0.00000000  0.16666667  0.75000000  1.0
  Ni  Ni73  1  0.00000000  0.50000000  0.75000000  1.0
  Ni  Ni74  1  0.00000000  0.83333333  0.75000000  1.0
  Ni  Ni75  1  0.33333333  0.16666667  0.75000000  1.0
  Ni  Ni76  1  0.33333333  0.50000000  0.75000000  1.0
  Ni  Ni77  1  0.33333333  0.83333333  0.75000000  1.0
  Ni  Ni78  1  0.66666667  0.16666667  0.75000000  1.0
  Ni  Ni79  1  0.66666667  0.50000000  0.75000000  1.0
  Ni  Ni80  1  0.66666667  0.83333333  0.75000000  1.0
  Ni  Ni81  1  0.21568627  0.03921569  0.72058824  1.0
  Ni  Ni82  1  0.21568627  0.37254902  0.72058824  1.0
  Ni  Ni83  1  0.21568627  0.70588235  0.72058824  1.0
  Ni  Ni84  1  0.54901961  0.03921569  0.72058824  1.0
  Ni  Ni85  1  0.54901961  0.37254902  0.72058824  1.0
  Ni  Ni86  1  0.54901961  0.70588235  0.72058824  1.0
  Ni  Ni87  1  0.88235294  0.03921569  0.72058824  1.0
  Ni  Ni88  1  0.88235294  0.37254902  0.72058824  1.0
  Ni  Ni89  1  0.88235294  0.70588235  0.72058824  1.0
  Ni  Ni90  1  0.09803922  0.24509804  0.69117647  1.0
  Ni  Ni91  1  0.09803922  0.57843137  0.69117647  1.0
  Ni  Ni92  1  0.09803922  0.91176471  0.69117647  1.0
  Ni  Ni93  1  0.43137255  0.24509804  0.69117647  1.0
  Ni  Ni94  1  0.43137255  0.57843137  0.69117647  1.0
  Ni  Ni95  1  0.43137255  0.91176471  0.69117647  1.0
  Ni  Ni96  1  0.76470588  0.24509804  0.69117647  1.0
  Ni  Ni97  1  0.76470588  0.57843137  0.69117647  1.0
  Ni  Ni98  1  0.76470588  0.91176471  0.69117647  1.0
  Ni  Ni99  1  0.31372549  0.11764706  0.66176471  1.0
  Ni  Ni100  1  0.31372549  0.45098039  0.66176471  1.0
  Ni  Ni101  1  0.31372549  0.78431373  0.66176471  1.0
  Ni  Ni102  1  0.64705882  0.11764706  0.66176471  1.0
  Ni  Ni103  1  0.64705882  0.45098039  0.66176471  1.0
  Ni  Ni104  1  0.64705882  0.78431373  0.66176471  1.0
  Ni  Ni105  1  0.98039216  0.11764706  0.66176471  1.0
  Ni  Ni106  1  0.98039216  0.45098039  0.66176471  1.0
  Ni  Ni107  1  0.98039216  0.78431373  0.66176471  1.0
  Ni  Ni108  1  0.19607843  0.32352941  0.63235294  1.0
  Ni  Ni109  1  0.19607843  0.65686275  0.63235294  1.0
  Ni  Ni110  1  0.19607843  0.99019608  0.63235294  1.0
  Ni  Ni111  1  0.52941176  0.32352941  0.63235294  1.0
  Ni  Ni112  1  0.52941176  0.65686275  0.63235294  1.0
  Ni  Ni113  1  0.52941176  0.99019608  0.63235294  1.0
  Ni  Ni114  1  0.86274510  0.32352941  0.63235294  1.0
  Ni  Ni115  1  0.86274510  0.65686275  0.63235294  1.0
  Ni  Ni116  1  0.86274510  0.99019608  0.63235294  1.0
  Ni  Ni117  1  0.07843137  0.19607843  0.60294118  1.0
  Ni  Ni118  1  0.07843137  0.52941176  0.60294118  1.0
  Ni  Ni119  1  0.07843137  0.86274510  0.60294118  1.0
  Ni  Ni120  1  0.41176471  0.19607843  0.60294118  1.0
  Ni  Ni121  1  0.41176471  0.52941176  0.60294118  1.0
  Ni  Ni122  1  0.41176471  0.86274510  0.60294118  1.0
  Ni  Ni123  1  0.74509804  0.19607843  0.60294118  1.0
  Ni  Ni124  1  0.74509804  0.52941176  0.60294118  1.0
  Ni  Ni125  1  0.74509804  0.86274510  0.60294118  1.0
  V  V126  1  0.32352941  0.05882353  0.95588235  1.0
  V  V127  1  0.32352941  0.39215686  0.95588235  1.0
  V  V128  1  0.32352941  0.72549020  0.95588235  1.0
  V  V129  1  0.65686275  0.05882353  0.95588235  1.0
  V  V130  1  0.65686275  0.39215686  0.95588235  1.0
  V  V131  1  0.65686275  0.72549020  0.95588235  1.0
  V  V132  1  0.99019608  0.05882353  0.95588235  1.0
  V  V133  1  0.99019608  0.39215686  0.95588235  1.0
  V  V134  1  0.99019608  0.72549020  0.95588235  1.0
  V  V135  1  0.10784314  0.18627451  0.98529412  1.0
  V  V136  1  0.10784314  0.51960784  0.98529412  1.0
  V  V137  1  0.10784314  0.85294118  0.98529412  1.0
  V  V138  1  0.44117647  0.18627451  0.98529412  1.0
  V  V139  1  0.44117647  0.51960784  0.98529412  1.0
  V  V140  1  0.44117647  0.85294118  0.98529412  1.0
  V  V141  1  0.77450980  0.18627451  0.98529412  1.0
  V  V142  1  0.77450980  0.51960784  0.98529412  1.0
  V  V143  1  0.77450980  0.85294118  0.98529412  1.0
  V  V144  1  0.08823529  0.13725490  0.89705882  1.0
  V  V145  1  0.08823529  0.47058824  0.89705882  1.0
  V  V146  1  0.08823529  0.80392157  0.89705882  1.0
  V  V147  1  0.42156863  0.13725490  0.89705882  1.0
  V  V148  1  0.42156863  0.47058824  0.89705882  1.0
  V  V149  1  0.42156863  0.80392157  0.89705882  1.0
  V  V150  1  0.75490196  0.13725490  0.89705882  1.0
  V  V151  1  0.75490196  0.47058824  0.89705882  1.0
  V  V152  1  0.75490196  0.80392157  0.89705882  1.0
  V  V153  1  0.20588235  0.26470588  0.92647059  1.0
  V  V154  1  0.20588235  0.59803922  0.92647059  1.0
  V  V155  1  0.20588235  0.93137255  0.92647059  1.0
  V  V156  1  0.53921569  0.26470588  0.92647059  1.0
  V  V157  1  0.53921569  0.59803922  0.92647059  1.0
  V  V158  1  0.53921569  0.93137255  0.92647059  1.0
  V  V159  1  0.87254902  0.26470588  0.92647059  1.0
  V  V160  1  0.87254902  0.59803922  0.92647059  1.0
  V  V161  1  0.87254902  0.93137255  0.92647059  1.0
  V  V162  1  0.18627451  0.21568627  0.83823529  1.0
  V  V163  1  0.18627451  0.54901961  0.83823529  1.0
  V  V164  1  0.18627451  0.88235294  0.83823529  1.0
  V  V165  1  0.51960784  0.21568627  0.83823529  1.0
  V  V166  1  0.51960784  0.54901961  0.83823529  1.0
  V  V167  1  0.51960784  0.88235294  0.83823529  1.0
  V  V168  1  0.85294118  0.21568627  0.83823529  1.0
  V  V169  1  0.85294118  0.54901961  0.83823529  1.0
  V  V170  1  0.85294118  0.88235294  0.83823529  1.0
  V  V171  1  0.30392157  0.00980392  0.86764706  1.0
  V  V172  1  0.30392157  0.34313725  0.86764706  1.0
  V  V173  1  0.30392157  0.67647059  0.86764706  1.0
  V  V174  1  0.63725490  0.00980392  0.86764706  1.0
  V  V175  1  0.63725490  0.34313725  0.86764706  1.0
  V  V176  1  0.63725490  0.67647059  0.86764706  1.0
  V  V177  1  0.97058824  0.00980392  0.86764706  1.0
  V  V178  1  0.97058824  0.34313725  0.86764706  1.0
  V  V179  1  0.97058824  0.67647059  0.86764706  1.0
  V  V180  1  0.28431373  0.29411765  0.77941176  1.0
  V  V181  1  0.28431373  0.62745098  0.77941176  1.0
  V  V182  1  0.28431373  0.96078431  0.77941176  1.0
  V  V183  1  0.61764706  0.29411765  0.77941176  1.0
  V  V184  1  0.61764706  0.62745098  0.77941176  1.0
  V  V185  1  0.61764706  0.96078431  0.77941176  1.0
  V  V186  1  0.95098039  0.29411765  0.77941176  1.0
  V  V187  1  0.95098039  0.62745098  0.77941176  1.0
  V  V188  1  0.95098039  0.96078431  0.77941176  1.0
  V  V189  1  0.06862745  0.08823529  0.80882353  1.0
  V  V190  1  0.06862745  0.42156863  0.80882353  1.0
  V  V191  1  0.06862745  0.75490196  0.80882353  1.0
  V  V192  1  0.40196078  0.08823529  0.80882353  1.0
  V  V193  1  0.40196078  0.42156863  0.80882353  1.0
  V  V194  1  0.40196078  0.75490196  0.80882353  1.0
  V  V195  1  0.73529412  0.08823529  0.80882353  1.0
  V  V196  1  0.73529412  0.42156863  0.80882353  1.0
  V  V197  1  0.73529412  0.75490196  0.80882353  1.0
  V  V198  1  0.04901961  0.03921569  0.72058824  1.0
  V  V199  1  0.04901961  0.37254902  0.72058824  1.0
  V  V200  1  0.04901961  0.70588235  0.72058824  1.0
  V  V201  1  0.38235294  0.03921569  0.72058824  1.0
  V  V202  1  0.38235294  0.37254902  0.72058824  1.0
  V  V203  1  0.38235294  0.70588235  0.72058824  1.0
  V  V204  1  0.71568627  0.03921569  0.72058824  1.0
  V  V205  1  0.71568627  0.37254902  0.72058824  1.0
  V  V206  1  0.71568627  0.70588235  0.72058824  1.0
  V  V207  1  0.16666667  0.16666667  0.75000000  1.0
  V  V208  1  0.16666667  0.50000000  0.75000000  1.0
  V  V209  1  0.16666667  0.83333333  0.75000000  1.0
  V  V210  1  0.50000000  0.16666667  0.75000000  1.0
  V  V211  1  0.50000000  0.50000000  0.75000000  1.0
  V  V212  1  0.50000000  0.83333333  0.75000000  1.0
  V  V213  1  0.83333333  0.16666667  0.75000000  1.0
  V  V214  1  0.83333333  0.50000000  0.75000000  1.0
  V  V215  1  0.83333333  0.83333333  0.75000000  1.0
  V  V216  1  0.14705882  0.11764706  0.66176471  1.0
  V  V217  1  0.14705882  0.45098039  0.66176471  1.0
  V  V218  1  0.14705882  0.78431373  0.66176471  1.0
  V  V219  1  0.48039216  0.11764706  0.66176471  1.0
  V  V220  1  0.48039216  0.45098039  0.66176471  1.0
  V  V221  1  0.48039216  0.78431373  0.66176471  1.0
  V  V222  1  0.81372549  0.11764706  0.66176471  1.0
  V  V223  1  0.81372549  0.45098039  0.66176471  1.0
  V  V224  1  0.81372549  0.78431373  0.66176471  1.0
  V  V225  1  0.26470588  0.24509804  0.69117647  1.0
  V  V226  1  0.26470588  0.57843137  0.69117647  1.0
  V  V227  1  0.26470588  0.91176471  0.69117647  1.0
  V  V228  1  0.59803922  0.24509804  0.69117647  1.0
  V  V229  1  0.59803922  0.57843137  0.69117647  1.0
  V  V230  1  0.59803922  0.91176471  0.69117647  1.0
  V  V231  1  0.93137255  0.24509804  0.69117647  1.0
  V  V232  1  0.93137255  0.57843137  0.69117647  1.0
  V  V233  1  0.93137255  0.91176471  0.69117647  1.0
  V  V234  1  0.24509804  0.19607843  0.60294118  1.0
  V  V235  1  0.24509804  0.52941176  0.60294118  1.0
  V  V236  1  0.24509804  0.86274510  0.60294118  1.0
  V  V237  1  0.57843137  0.19607843  0.60294118  1.0
  V  V238  1  0.57843137  0.52941176  0.60294118  1.0
  V  V239  1  0.57843137  0.86274510  0.60294118  1.0
  V  V240  1  0.91176471  0.19607843  0.60294118  1.0
  V  V241  1  0.91176471  0.52941176  0.60294118  1.0
  V  V242  1  0.91176471  0.86274510  0.60294118  1.0
  V  V243  1  0.02941176  0.32352941  0.63235294  1.0
  V  V244  1  0.02941176  0.65686275  0.63235294  1.0
  V  V245  1  0.02941176  0.99019608  0.63235294  1.0
  V  V246  1  0.36274510  0.32352941  0.63235294  1.0
  V  V247  1  0.36274510  0.65686275  0.63235294  1.0
  V  V248  1  0.36274510  0.99019608  0.63235294  1.0
  V  V249  1  0.69607843  0.32352941  0.63235294  1.0
  V  V250  1  0.69607843  0.65686275  0.63235294  1.0
  V  V251  1  0.69607843  0.99019608  0.63235294  1.0
