# generated using pymatgen
data_VNi
_symmetry_space_group_name_H-M   'P 1'
_cell_length_a   7.65595139
_cell_length_b   7.65595139
_cell_length_c   31.47882500
_cell_angle_alpha   106.48381560
_cell_angle_beta   106.48381560
_cell_angle_gamma   60.00000000
_symmetry_Int_Tables_number   1
_chemical_formula_structural   VNi
_chemical_formula_sum   'V27 Ni27'
_cell_volume   1509.69282415
_cell_formula_units_Z   27
loop_
 _symmetry_equiv_pos_site_id
 _symmetry_equiv_pos_as_xyz
  1  'x, y, z'
loop_
 _atom_site_type_symbol
 _atom_site_label
 _atom_site_symmetry_multiplicity
 _atom_site_fract_x
 _atom_site_fract_y
 _atom_site_fract_z
 _atom_site_occupancy
  V  V0  1  0.16666667  0.16666667  0.03571429  1.0
  V  V1  1  0.16666667  0.50000000  0.03571429  1.0
  V  V2  1  0.16666667  0.83333333  0.03571429  1.0
  V  V3  1  0.50000000  0.16666667  0.03571429  1.0
  V  V4  1  0.50000000  0.50000000  0.03571429  1.0
  V  V5  1  0.50000000  0.83333333  0.03571429  1.0
  V  V6  1  0.83333333  0.16666667  0.03571429  1.0
  V  V7  1  0.83333333  0.50000000  0.03571429  1.0
  V  V8  1  0.83333333  0.83333333  0.03571429  1.0
  Ni  Ni9  1  0.00000000  0.00000000  0.10714286  1.0
  Ni  Ni10  1  0.00000000  0.33333333  0.10714286  1.0
  Ni  Ni11  1  0.00000000  0.66666667  0.10714286  1.0
  Ni  Ni12  1  0.33333333  0.00000000  0.10714286  1.0
  Ni  Ni13  1  0.33333333  0.33333333  0.10714286  1.0
  Ni  Ni14  1  0.33333333  0.66666667  0.10714286  1.0
  Ni  Ni15  1  0.66666667  0.00000000  0.10714286  1.0
  Ni  Ni16  1  0.66666667  0.33333333  0.10714286  1.0
  Ni  Ni17  1  0.66666667  0.66666667  0.10714286  1.0
  V  V18  1  0.16666667  0.16666667  0.17857143  1.0
  V  V19  1  0.16666667  0.50000000  0.17857143  1.0
  V  V20  1  0.16666667  0.83333333  0.17857143  1.0
  V  V21  1  0.50000000  0.16666667  0.17857143  1.0
  V  V22  1  0.50000000  0.50000000  0.17857143  1.0
  V  V23  1  0.50000000  0.83333333  0.17857143  1.0
  V  V24  1  0.83333333  0.16666667  0.17857143  1.0
  V  V25  1  0.83333333  0.50000000  0.17857143  1.0
  V  V26  1  0.83333333  0.83333333  0.17857143  1.0
  Ni  Ni27  1  0.00000000  0.00000000  0.25000000  1.0
  Ni  Ni28  1  0.00000000  0.33333333  0.25000000  1.0
  Ni  Ni29  1  0.00000000  0.66666667  0.25000000  1.0
  Ni  Ni30  1  0.33333333  0.00000000  0.25000000  1.0
  Ni  Ni31  1  0.33333333  0.33333333  0.25000000  1.0
  Ni  Ni32  1  0.33333333  0.66666667  0.25000000  1.0
  Ni  Ni33  1  0.66666667  0.00000000  0.25000000  1.0
  Ni  Ni34  1  0.66666667  0.33333333  0.25000000  1.0
  Ni  Ni35  1  0.66666667  0.66666667  0.25000000  1.0
  V  V36  1  0.16666667  0.16666667  0.32142857  1.0
  V  V37  1  0.16666667  0.50000000  0.32142857  1.0
  V  V38  1  0.16666667  0.83333333  0.32142857  1.0
  V  V39  1  0.50000000  0.16666667  0.32142857  1.0
  V  V40  1  0.50000000  0.50000000  0.32142857  1.0
  V  V41  1  0.50000000  0.83333333  0.32142857  1.0
  V  V42  1  0.83333333  0.16666667  0.32142857  1.0
  V  V43  1  0.83333333  0.50000000  0.32142857  1.0
  V  V44  1  0.83333333  0.83333333  0.32142857  1.0
  Ni  Ni45  1  0.00000000  0.00000000  0.39285714  1.0
  Ni  Ni46  1  0.00000000  0.33333333  0.39285714  1.0
  Ni  Ni47  1  0.00000000  0.66666667  0.39285714  1.0
  Ni  Ni48  1  0.33333333  0.00000000  0.39285714  1.0
  Ni  Ni49  1  0.33333333  0.33333333  0.39285714  1.0
  Ni  Ni50  1  0.33333333  0.66666667  0.39285714  1.0
  Ni  Ni51  1  0.66666667  0.00000000  0.39285714  1.0
  Ni  Ni52  1  0.66666667  0.33333333  0.39285714  1.0
  Ni  Ni53  1  0.66666667  0.66666667  0.39285714  1.0
