# generated using pymatgen
data_Y2Ni7
_symmetry_space_group_name_H-M   'P 1'
_cell_length_a   37.10595975
_cell_length_b   14.81365210
_cell_length_c   86.58057275
_cell_angle_alpha   101.51431996
_cell_angle_beta   23.02863991
_cell_angle_gamma   90.00000000
_symmetry_Int_Tables_number   1
_chemical_formula_structural   Y2Ni7
_chemical_formula_sum   'Y108 Ni378'
_cell_volume   16011.10196331
_cell_formula_units_Z   54
loop_
 _symmetry_equiv_pos_site_id
 _symmetry_equiv_pos_as_xyz
  1  'x, y, z'
loop_
 _atom_site_type_symbol
 _atom_site_label
 _atom_site_symmetry_multiplicity
 _atom_site_fract_x
 _atom_site_fract_y
 _atom_site_fract_z
 _atom_site_occupancy
  Y  Y0  1  0.31652133  0.31652133  0.12124171  1.0
  Y  Y1  1  0.31652133  0.64985467  0.12124171  1.0
  Y  Y2  1  0.31652133  0.98318800  0.12124171  1.0
  Y  Y3  1  0.64985467  0.31652133  0.12124171  1.0
  Y  Y4  1  0.64985467  0.64985467  0.12124171  1.0
  Y  Y5  1  0.64985467  0.98318800  0.12124171  1.0
  Y  Y6  1  0.98318800  0.31652133  0.12124171  1.0
  Y  Y7  1  0.98318800  0.64985467  0.12124171  1.0
  Y  Y8  1  0.98318800  0.98318800  0.12124171  1.0
  Y  Y9  1  0.04905400  0.04905400  0.03484114  1.0
  Y  Y10  1  0.04905400  0.38238733  0.03484114  1.0
  Y  Y11  1  0.04905400  0.71572067  0.03484114  1.0
  Y  Y12  1  0.38238733  0.04905400  0.03484114  1.0
  Y  Y13  1  0.38238733  0.38238733  0.03484114  1.0
  Y  Y14  1  0.38238733  0.71572067  0.03484114  1.0
  Y  Y15  1  0.71572067  0.04905400  0.03484114  1.0
  Y  Y16  1  0.71572067  0.38238733  0.03484114  1.0
  Y  Y17  1  0.71572067  0.71572067  0.03484114  1.0
  Y  Y18  1  0.01681200  0.01681200  0.00720514  1.0
  Y  Y19  1  0.01681200  0.35014533  0.00720514  1.0
  Y  Y20  1  0.01681200  0.68347867  0.00720514  1.0
  Y  Y21  1  0.35014533  0.01681200  0.00720514  1.0
  Y  Y22  1  0.35014533  0.35014533  0.00720514  1.0
  Y  Y23  1  0.35014533  0.68347867  0.00720514  1.0
  Y  Y24  1  0.68347867  0.01681200  0.00720514  1.0
  Y  Y25  1  0.68347867  0.35014533  0.00720514  1.0
  Y  Y26  1  0.68347867  0.68347867  0.00720514  1.0
  Y  Y27  1  0.28427933  0.28427933  0.09360571  1.0
  Y  Y28  1  0.28427933  0.61761267  0.09360571  1.0
  Y  Y29  1  0.28427933  0.95094600  0.09360571  1.0
  Y  Y30  1  0.61761267  0.28427933  0.09360571  1.0
  Y  Y31  1  0.61761267  0.61761267  0.09360571  1.0
  Y  Y32  1  0.61761267  0.95094600  0.09360571  1.0
  Y  Y33  1  0.95094600  0.28427933  0.09360571  1.0
  Y  Y34  1  0.95094600  0.61761267  0.09360571  1.0
  Y  Y35  1  0.95094600  0.95094600  0.09360571  1.0
  Ni  Ni36  1  0.24060633  0.24060633  0.05617171  1.0
  Ni  Ni37  1  0.24060633  0.57393967  0.05617171  1.0
  Ni  Ni38  1  0.24060633  0.90727300  0.05617171  1.0
  Ni  Ni39  1  0.57393967  0.24060633  0.05617171  1.0
  Ni  Ni40  1  0.57393967  0.57393967  0.05617171  1.0
  Ni  Ni41  1  0.57393967  0.90727300  0.05617171  1.0
  Ni  Ni42  1  0.90727300  0.24060633  0.05617171  1.0
  Ni  Ni43  1  0.90727300  0.57393967  0.05617171  1.0
  Ni  Ni44  1  0.90727300  0.90727300  0.05617171  1.0
  Ni  Ni45  1  0.12942167  0.12942167  0.10372771  1.0
  Ni  Ni46  1  0.12942167  0.46275500  0.10372771  1.0
  Ni  Ni47  1  0.12942167  0.79608833  0.10372771  1.0
  Ni  Ni48  1  0.46275500  0.12942167  0.10372771  1.0
  Ni  Ni49  1  0.46275500  0.46275500  0.10372771  1.0
  Ni  Ni50  1  0.46275500  0.79608833  0.10372771  1.0
  Ni  Ni51  1  0.79608833  0.12942167  0.10372771  1.0
  Ni  Ni52  1  0.79608833  0.46275500  0.10372771  1.0
  Ni  Ni53  1  0.79608833  0.79608833  0.10372771  1.0
  Ni  Ni54  1  0.12999600  0.12999600  0.03295514  1.0
  Ni  Ni55  1  0.12999600  0.46332933  0.03295514  1.0
  Ni  Ni56  1  0.12999600  0.79666267  0.03295514  1.0
  Ni  Ni57  1  0.46332933  0.12999600  0.03295514  1.0
  Ni  Ni58  1  0.46332933  0.46332933  0.03295514  1.0
  Ni  Ni59  1  0.46332933  0.79666267  0.03295514  1.0
  Ni  Ni60  1  0.79666267  0.12999600  0.03295514  1.0
  Ni  Ni61  1  0.79666267  0.46332933  0.03295514  1.0
  Ni  Ni62  1  0.79666267  0.79666267  0.03295514  1.0
  Ni  Ni63  1  0.20391167  0.20391167  0.02471914  1.0
  Ni  Ni64  1  0.20391167  0.53724500  0.02471914  1.0
  Ni  Ni65  1  0.20391167  0.87057833  0.02471914  1.0
  Ni  Ni66  1  0.53724500  0.20391167  0.02471914  1.0
  Ni  Ni67  1  0.53724500  0.53724500  0.02471914  1.0
  Ni  Ni68  1  0.53724500  0.87057833  0.02471914  1.0
  Ni  Ni69  1  0.87057833  0.20391167  0.02471914  1.0
  Ni  Ni70  1  0.87057833  0.53724500  0.02471914  1.0
  Ni  Ni71  1  0.87057833  0.87057833  0.02471914  1.0
  Ni  Ni72  1  0.00000000  0.16666667  0.13565200  1.0
  Ni  Ni73  1  0.00000000  0.50000000  0.13565200  1.0
  Ni  Ni74  1  0.00000000  0.83333333  0.13565200  1.0
  Ni  Ni75  1  0.33333333  0.16666667  0.13565200  1.0
  Ni  Ni76  1  0.33333333  0.50000000  0.13565200  1.0
  Ni  Ni77  1  0.33333333  0.83333333  0.13565200  1.0
  Ni  Ni78  1  0.66666667  0.16666667  0.13565200  1.0
  Ni  Ni79  1  0.66666667  0.50000000  0.13565200  1.0
  Ni  Ni80  1  0.66666667  0.83333333  0.13565200  1.0
  Ni  Ni81  1  0.20333733  0.03628867  0.09549171  1.0
  Ni  Ni82  1  0.20333733  0.36962200  0.09549171  1.0
  Ni  Ni83  1  0.20333733  0.70295533  0.09549171  1.0
  Ni  Ni84  1  0.53667067  0.03628867  0.09549171  1.0
  Ni  Ni85  1  0.53667067  0.36962200  0.09549171  1.0
  Ni  Ni86  1  0.53667067  0.70295533  0.09549171  1.0
  Ni  Ni87  1  0.87000400  0.03628867  0.09549171  1.0
  Ni  Ni88  1  0.87000400  0.36962200  0.09549171  1.0
  Ni  Ni89  1  0.87000400  0.70295533  0.09549171  1.0
  Ni  Ni90  1  0.16666667  0.16666667  0.13565200  1.0
  Ni  Ni91  1  0.16666667  0.50000000  0.13565200  1.0
  Ni  Ni92  1  0.16666667  0.83333333  0.13565200  1.0
  Ni  Ni93  1  0.50000000  0.16666667  0.13565200  1.0
  Ni  Ni94  1  0.50000000  0.50000000  0.13565200  1.0
  Ni  Ni95  1  0.50000000  0.83333333  0.13565200  1.0
  Ni  Ni96  1  0.83333333  0.16666667  0.13565200  1.0
  Ni  Ni97  1  0.83333333  0.50000000  0.13565200  1.0
  Ni  Ni98  1  0.83333333  0.83333333  0.13565200  1.0
  Ni  Ni99  1  0.12999600  0.29704467  0.03295514  1.0
  Ni  Ni100  1  0.12999600  0.63037800  0.03295514  1.0
  Ni  Ni101  1  0.12999600  0.96371133  0.03295514  1.0
  Ni  Ni102  1  0.46332933  0.29704467  0.03295514  1.0
  Ni  Ni103  1  0.46332933  0.63037800  0.03295514  1.0
  Ni  Ni104  1  0.46332933  0.96371133  0.03295514  1.0
  Ni  Ni105  1  0.79666267  0.29704467  0.03295514  1.0
  Ni  Ni106  1  0.79666267  0.63037800  0.03295514  1.0
  Ni  Ni107  1  0.79666267  0.96371133  0.03295514  1.0
  Ni  Ni108  1  0.09272700  0.09272700  0.07227514  1.0
  Ni  Ni109  1  0.09272700  0.42606033  0.07227514  1.0
  Ni  Ni110  1  0.09272700  0.75939367  0.07227514  1.0
  Ni  Ni111  1  0.42606033  0.09272700  0.07227514  1.0
  Ni  Ni112  1  0.42606033  0.42606033  0.07227514  1.0
  Ni  Ni113  1  0.42606033  0.75939367  0.07227514  1.0
  Ni  Ni114  1  0.75939367  0.09272700  0.07227514  1.0
  Ni  Ni115  1  0.75939367  0.42606033  0.07227514  1.0
  Ni  Ni116  1  0.75939367  0.75939367  0.07227514  1.0
  Ni  Ni117  1  0.20333733  0.20333733  0.09549171  1.0
  Ni  Ni118  1  0.20333733  0.53667067  0.09549171  1.0
  Ni  Ni119  1  0.20333733  0.87000400  0.09549171  1.0
  Ni  Ni120  1  0.53667067  0.20333733  0.09549171  1.0
  Ni  Ni121  1  0.53667067  0.53667067  0.09549171  1.0
  Ni  Ni122  1  0.53667067  0.87000400  0.09549171  1.0
  Ni  Ni123  1  0.87000400  0.20333733  0.09549171  1.0
  Ni  Ni124  1  0.87000400  0.53667067  0.09549171  1.0
  Ni  Ni125  1  0.87000400  0.87000400  0.09549171  1.0
  Ni  Ni126  1  0.29704467  0.12999600  0.10422000  1.0
  Ni  Ni127  1  0.29704467  0.46332933  0.10422000  1.0
  Ni  Ni128  1  0.29704467  0.79666267  0.10422000  1.0
  Ni  Ni129  1  0.63037800  0.12999600  0.10422000  1.0
  Ni  Ni130  1  0.63037800  0.46332933  0.10422000  1.0
  Ni  Ni131  1  0.63037800  0.79666267  0.10422000  1.0
  Ni  Ni132  1  0.96371133  0.12999600  0.10422000  1.0
  Ni  Ni133  1  0.96371133  0.46332933  0.10422000  1.0
  Ni  Ni134  1  0.96371133  0.79666267  0.10422000  1.0
  Ni  Ni135  1  0.16666667  0.16666667  0.06422343  1.0
  Ni  Ni136  1  0.16666667  0.50000000  0.06422343  1.0
  Ni  Ni137  1  0.16666667  0.83333333  0.06422343  1.0
  Ni  Ni138  1  0.50000000  0.16666667  0.06422343  1.0
  Ni  Ni139  1  0.50000000  0.50000000  0.06422343  1.0
  Ni  Ni140  1  0.50000000  0.83333333  0.06422343  1.0
  Ni  Ni141  1  0.83333333  0.16666667  0.06422343  1.0
  Ni  Ni142  1  0.83333333  0.50000000  0.06422343  1.0
  Ni  Ni143  1  0.83333333  0.83333333  0.06422343  1.0
  Ni  Ni144  1  0.16666667  0.00000000  0.06422343  1.0
  Ni  Ni145  1  0.16666667  0.33333333  0.06422343  1.0
  Ni  Ni146  1  0.16666667  0.66666667  0.06422343  1.0
  Ni  Ni147  1  0.50000000  0.00000000  0.06422343  1.0
  Ni  Ni148  1  0.50000000  0.33333333  0.06422343  1.0
  Ni  Ni149  1  0.50000000  0.66666667  0.06422343  1.0
  Ni  Ni150  1  0.83333333  0.00000000  0.06422343  1.0
  Ni  Ni151  1  0.83333333  0.33333333  0.06422343  1.0
  Ni  Ni152  1  0.83333333  0.66666667  0.06422343  1.0
  Ni  Ni153  1  0.03628867  0.20333733  0.02422686  1.0
  Ni  Ni154  1  0.03628867  0.53667067  0.02422686  1.0
  Ni  Ni155  1  0.03628867  0.87000400  0.02422686  1.0
  Ni  Ni156  1  0.36962200  0.20333733  0.02422686  1.0
  Ni  Ni157  1  0.36962200  0.53667067  0.02422686  1.0
  Ni  Ni158  1  0.36962200  0.87000400  0.02422686  1.0
  Ni  Ni159  1  0.70295533  0.20333733  0.02422686  1.0
  Ni  Ni160  1  0.70295533  0.53667067  0.02422686  1.0
  Ni  Ni161  1  0.70295533  0.87000400  0.02422686  1.0
  Y  Y162  1  0.31652133  0.31652133  0.26409886  1.0
  Y  Y163  1  0.31652133  0.64985467  0.26409886  1.0
  Y  Y164  1  0.31652133  0.98318800  0.26409886  1.0
  Y  Y165  1  0.64985467  0.31652133  0.26409886  1.0
  Y  Y166  1  0.64985467  0.64985467  0.26409886  1.0
  Y  Y167  1  0.64985467  0.98318800  0.26409886  1.0
  Y  Y168  1  0.98318800  0.31652133  0.26409886  1.0
  Y  Y169  1  0.98318800  0.64985467  0.26409886  1.0
  Y  Y170  1  0.98318800  0.98318800  0.26409886  1.0
  Y  Y171  1  0.04905400  0.04905400  0.17769829  1.0
  Y  Y172  1  0.04905400  0.38238733  0.17769829  1.0
  Y  Y173  1  0.04905400  0.71572067  0.17769829  1.0
  Y  Y174  1  0.38238733  0.04905400  0.17769829  1.0
  Y  Y175  1  0.38238733  0.38238733  0.17769829  1.0
  Y  Y176  1  0.38238733  0.71572067  0.17769829  1.0
  Y  Y177  1  0.71572067  0.04905400  0.17769829  1.0
  Y  Y178  1  0.71572067  0.38238733  0.17769829  1.0
  Y  Y179  1  0.71572067  0.71572067  0.17769829  1.0
  Y  Y180  1  0.01681200  0.01681200  0.15006229  1.0
  Y  Y181  1  0.01681200  0.35014533  0.15006229  1.0
  Y  Y182  1  0.01681200  0.68347867  0.15006229  1.0
  Y  Y183  1  0.35014533  0.01681200  0.15006229  1.0
  Y  Y184  1  0.35014533  0.35014533  0.15006229  1.0
  Y  Y185  1  0.35014533  0.68347867  0.15006229  1.0
  Y  Y186  1  0.68347867  0.01681200  0.15006229  1.0
  Y  Y187  1  0.68347867  0.35014533  0.15006229  1.0
  Y  Y188  1  0.68347867  0.68347867  0.15006229  1.0
  Y  Y189  1  0.28427933  0.28427933  0.23646286  1.0
  Y  Y190  1  0.28427933  0.61761267  0.23646286  1.0
  Y  Y191  1  0.28427933  0.95094600  0.23646286  1.0
  Y  Y192  1  0.61761267  0.28427933  0.23646286  1.0
  Y  Y193  1  0.61761267  0.61761267  0.23646286  1.0
  Y  Y194  1  0.61761267  0.95094600  0.23646286  1.0
  Y  Y195  1  0.95094600  0.28427933  0.23646286  1.0
  Y  Y196  1  0.95094600  0.61761267  0.23646286  1.0
  Y  Y197  1  0.95094600  0.95094600  0.23646286  1.0
  Ni  Ni198  1  0.24060633  0.24060633  0.19902886  1.0
  Ni  Ni199  1  0.24060633  0.57393967  0.19902886  1.0
  Ni  Ni200  1  0.24060633  0.90727300  0.19902886  1.0
  Ni  Ni201  1  0.57393967  0.24060633  0.19902886  1.0
  Ni  Ni202  1  0.57393967  0.57393967  0.19902886  1.0
  Ni  Ni203  1  0.57393967  0.90727300  0.19902886  1.0
  Ni  Ni204  1  0.90727300  0.24060633  0.19902886  1.0
  Ni  Ni205  1  0.90727300  0.57393967  0.19902886  1.0
  Ni  Ni206  1  0.90727300  0.90727300  0.19902886  1.0
  Ni  Ni207  1  0.12942167  0.12942167  0.24658486  1.0
  Ni  Ni208  1  0.12942167  0.46275500  0.24658486  1.0
  Ni  Ni209  1  0.12942167  0.79608833  0.24658486  1.0
  Ni  Ni210  1  0.46275500  0.12942167  0.24658486  1.0
  Ni  Ni211  1  0.46275500  0.46275500  0.24658486  1.0
  Ni  Ni212  1  0.46275500  0.79608833  0.24658486  1.0
  Ni  Ni213  1  0.79608833  0.12942167  0.24658486  1.0
  Ni  Ni214  1  0.79608833  0.46275500  0.24658486  1.0
  Ni  Ni215  1  0.79608833  0.79608833  0.24658486  1.0
  Ni  Ni216  1  0.12999600  0.12999600  0.17581229  1.0
  Ni  Ni217  1  0.12999600  0.46332933  0.17581229  1.0
  Ni  Ni218  1  0.12999600  0.79666267  0.17581229  1.0
  Ni  Ni219  1  0.46332933  0.12999600  0.17581229  1.0
  Ni  Ni220  1  0.46332933  0.46332933  0.17581229  1.0
  Ni  Ni221  1  0.46332933  0.79666267  0.17581229  1.0
  Ni  Ni222  1  0.79666267  0.12999600  0.17581229  1.0
  Ni  Ni223  1  0.79666267  0.46332933  0.17581229  1.0
  Ni  Ni224  1  0.79666267  0.79666267  0.17581229  1.0
  Ni  Ni225  1  0.20391167  0.20391167  0.16757629  1.0
  Ni  Ni226  1  0.20391167  0.53724500  0.16757629  1.0
  Ni  Ni227  1  0.20391167  0.87057833  0.16757629  1.0
  Ni  Ni228  1  0.53724500  0.20391167  0.16757629  1.0
  Ni  Ni229  1  0.53724500  0.53724500  0.16757629  1.0
  Ni  Ni230  1  0.53724500  0.87057833  0.16757629  1.0
  Ni  Ni231  1  0.87057833  0.20391167  0.16757629  1.0
  Ni  Ni232  1  0.87057833  0.53724500  0.16757629  1.0
  Ni  Ni233  1  0.87057833  0.87057833  0.16757629  1.0
  Ni  Ni234  1  0.00000000  0.16666667  0.27850914  1.0
  Ni  Ni235  1  0.00000000  0.50000000  0.27850914  1.0
  Ni  Ni236  1  0.00000000  0.83333333  0.27850914  1.0
  Ni  Ni237  1  0.33333333  0.16666667  0.27850914  1.0
  Ni  Ni238  1  0.33333333  0.50000000  0.27850914  1.0
  Ni  Ni239  1  0.33333333  0.83333333  0.27850914  1.0
  Ni  Ni240  1  0.66666667  0.16666667  0.27850914  1.0
  Ni  Ni241  1  0.66666667  0.50000000  0.27850914  1.0
  Ni  Ni242  1  0.66666667  0.83333333  0.27850914  1.0
  Ni  Ni243  1  0.20333733  0.03628867  0.23834886  1.0
  Ni  Ni244  1  0.20333733  0.36962200  0.23834886  1.0
  Ni  Ni245  1  0.20333733  0.70295533  0.23834886  1.0
  Ni  Ni246  1  0.53667067  0.03628867  0.23834886  1.0
  Ni  Ni247  1  0.53667067  0.36962200  0.23834886  1.0
  Ni  Ni248  1  0.53667067  0.70295533  0.23834886  1.0
  Ni  Ni249  1  0.87000400  0.03628867  0.23834886  1.0
  Ni  Ni250  1  0.87000400  0.36962200  0.23834886  1.0
  Ni  Ni251  1  0.87000400  0.70295533  0.23834886  1.0
  Ni  Ni252  1  0.16666667  0.16666667  0.27850914  1.0
  Ni  Ni253  1  0.16666667  0.50000000  0.27850914  1.0
  Ni  Ni254  1  0.16666667  0.83333333  0.27850914  1.0
  Ni  Ni255  1  0.50000000  0.16666667  0.27850914  1.0
  Ni  Ni256  1  0.50000000  0.50000000  0.27850914  1.0
  Ni  Ni257  1  0.50000000  0.83333333  0.27850914  1.0
  Ni  Ni258  1  0.83333333  0.16666667  0.27850914  1.0
  Ni  Ni259  1  0.83333333  0.50000000  0.27850914  1.0
  Ni  Ni260  1  0.83333333  0.83333333  0.27850914  1.0
  Ni  Ni261  1  0.12999600  0.29704467  0.17581229  1.0
  Ni  Ni262  1  0.12999600  0.63037800  0.17581229  1.0
  Ni  Ni263  1  0.12999600  0.96371133  0.17581229  1.0
  Ni  Ni264  1  0.46332933  0.29704467  0.17581229  1.0
  Ni  Ni265  1  0.46332933  0.63037800  0.17581229  1.0
  Ni  Ni266  1  0.46332933  0.96371133  0.17581229  1.0
  Ni  Ni267  1  0.79666267  0.29704467  0.17581229  1.0
  Ni  Ni268  1  0.79666267  0.63037800  0.17581229  1.0
  Ni  Ni269  1  0.79666267  0.96371133  0.17581229  1.0
  Ni  Ni270  1  0.09272700  0.09272700  0.21513229  1.0
  Ni  Ni271  1  0.09272700  0.42606033  0.21513229  1.0
  Ni  Ni272  1  0.09272700  0.75939367  0.21513229  1.0
  Ni  Ni273  1  0.42606033  0.09272700  0.21513229  1.0
  Ni  Ni274  1  0.42606033  0.42606033  0.21513229  1.0
  Ni  Ni275  1  0.42606033  0.75939367  0.21513229  1.0
  Ni  Ni276  1  0.75939367  0.09272700  0.21513229  1.0
  Ni  Ni277  1  0.75939367  0.42606033  0.21513229  1.0
  Ni  Ni278  1  0.75939367  0.75939367  0.21513229  1.0
  Ni  Ni279  1  0.20333733  0.20333733  0.23834886  1.0
  Ni  Ni280  1  0.20333733  0.53667067  0.23834886  1.0
  Ni  Ni281  1  0.20333733  0.87000400  0.23834886  1.0
  Ni  Ni282  1  0.53667067  0.20333733  0.23834886  1.0
  Ni  Ni283  1  0.53667067  0.53667067  0.23834886  1.0
  Ni  Ni284  1  0.53667067  0.87000400  0.23834886  1.0
  Ni  Ni285  1  0.87000400  0.20333733  0.23834886  1.0
  Ni  Ni286  1  0.87000400  0.53667067  0.23834886  1.0
  Ni  Ni287  1  0.87000400  0.87000400  0.23834886  1.0
  Ni  Ni288  1  0.29704467  0.12999600  0.24707714  1.0
  Ni  Ni289  1  0.29704467  0.46332933  0.24707714  1.0
  Ni  Ni290  1  0.29704467  0.79666267  0.24707714  1.0
  Ni  Ni291  1  0.63037800  0.12999600  0.24707714  1.0
  Ni  Ni292  1  0.63037800  0.46332933  0.24707714  1.0
  Ni  Ni293  1  0.63037800  0.79666267  0.24707714  1.0
  Ni  Ni294  1  0.96371133  0.12999600  0.24707714  1.0
  Ni  Ni295  1  0.96371133  0.46332933  0.24707714  1.0
  Ni  Ni296  1  0.96371133  0.79666267  0.24707714  1.0
  Ni  Ni297  1  0.16666667  0.16666667  0.20708057  1.0
  Ni  Ni298  1  0.16666667  0.50000000  0.20708057  1.0
  Ni  Ni299  1  0.16666667  0.83333333  0.20708057  1.0
  Ni  Ni300  1  0.50000000  0.16666667  0.20708057  1.0
  Ni  Ni301  1  0.50000000  0.50000000  0.20708057  1.0
  Ni  Ni302  1  0.50000000  0.83333333  0.20708057  1.0
  Ni  Ni303  1  0.83333333  0.16666667  0.20708057  1.0
  Ni  Ni304  1  0.83333333  0.50000000  0.20708057  1.0
  Ni  Ni305  1  0.83333333  0.83333333  0.20708057  1.0
  Ni  Ni306  1  0.16666667  0.00000000  0.20708057  1.0
  Ni  Ni307  1  0.16666667  0.33333333  0.20708057  1.0
  Ni  Ni308  1  0.16666667  0.66666667  0.20708057  1.0
  Ni  Ni309  1  0.50000000  0.00000000  0.20708057  1.0
  Ni  Ni310  1  0.50000000  0.33333333  0.20708057  1.0
  Ni  Ni311  1  0.50000000  0.66666667  0.20708057  1.0
  Ni  Ni312  1  0.83333333  0.00000000  0.20708057  1.0
  Ni  Ni313  1  0.83333333  0.33333333  0.20708057  1.0
  Ni  Ni314  1  0.83333333  0.66666667  0.20708057  1.0
  Ni  Ni315  1  0.03628867  0.20333733  0.16708400  1.0
  Ni  Ni316  1  0.03628867  0.53667067  0.16708400  1.0
  Ni  Ni317  1  0.03628867  0.87000400  0.16708400  1.0
  Ni  Ni318  1  0.36962200  0.20333733  0.16708400  1.0
  Ni  Ni319  1  0.36962200  0.53667067  0.16708400  1.0
  Ni  Ni320  1  0.36962200  0.87000400  0.16708400  1.0
  Ni  Ni321  1  0.70295533  0.20333733  0.16708400  1.0
  Ni  Ni322  1  0.70295533  0.53667067  0.16708400  1.0
  Ni  Ni323  1  0.70295533  0.87000400  0.16708400  1.0
  Y  Y324  1  0.31652133  0.31652133  0.40695600  1.0
  Y  Y325  1  0.31652133  0.64985467  0.40695600  1.0
  Y  Y326  1  0.31652133  0.98318800  0.40695600  1.0
  Y  Y327  1  0.64985467  0.31652133  0.40695600  1.0
  Y  Y328  1  0.64985467  0.64985467  0.40695600  1.0
  Y  Y329  1  0.64985467  0.98318800  0.40695600  1.0
  Y  Y330  1  0.98318800  0.31652133  0.40695600  1.0
  Y  Y331  1  0.98318800  0.64985467  0.40695600  1.0
  Y  Y332  1  0.98318800  0.98318800  0.40695600  1.0
  Y  Y333  1  0.04905400  0.04905400  0.32055543  1.0
  Y  Y334  1  0.04905400  0.38238733  0.32055543  1.0
  Y  Y335  1  0.04905400  0.71572067  0.32055543  1.0
  Y  Y336  1  0.38238733  0.04905400  0.32055543  1.0
  Y  Y337  1  0.38238733  0.38238733  0.32055543  1.0
  Y  Y338  1  0.38238733  0.71572067  0.32055543  1.0
  Y  Y339  1  0.71572067  0.04905400  0.32055543  1.0
  Y  Y340  1  0.71572067  0.38238733  0.32055543  1.0
  Y  Y341  1  0.71572067  0.71572067  0.32055543  1.0
  Y  Y342  1  0.01681200  0.01681200  0.29291943  1.0
  Y  Y343  1  0.01681200  0.35014533  0.29291943  1.0
  Y  Y344  1  0.01681200  0.68347867  0.29291943  1.0
  Y  Y345  1  0.35014533  0.01681200  0.29291943  1.0
  Y  Y346  1  0.35014533  0.35014533  0.29291943  1.0
  Y  Y347  1  0.35014533  0.68347867  0.29291943  1.0
  Y  Y348  1  0.68347867  0.01681200  0.29291943  1.0
  Y  Y349  1  0.68347867  0.35014533  0.29291943  1.0
  Y  Y350  1  0.68347867  0.68347867  0.29291943  1.0
  Y  Y351  1  0.28427933  0.28427933  0.37932000  1.0
  Y  Y352  1  0.28427933  0.61761267  0.37932000  1.0
  Y  Y353  1  0.28427933  0.95094600  0.37932000  1.0
  Y  Y354  1  0.61761267  0.28427933  0.37932000  1.0
  Y  Y355  1  0.61761267  0.61761267  0.37932000  1.0
  Y  Y356  1  0.61761267  0.95094600  0.37932000  1.0
  Y  Y357  1  0.95094600  0.28427933  0.37932000  1.0
  Y  Y358  1  0.95094600  0.61761267  0.37932000  1.0
  Y  Y359  1  0.95094600  0.95094600  0.37932000  1.0
  Ni  Ni360  1  0.24060633  0.24060633  0.34188600  1.0
  Ni  Ni361  1  0.24060633  0.57393967  0.34188600  1.0
  Ni  Ni362  1  0.24060633  0.90727300  0.34188600  1.0
  Ni  Ni363  1  0.57393967  0.24060633  0.34188600  1.0
  Ni  Ni364  1  0.57393967  0.57393967  0.34188600  1.0
  Ni  Ni365  1  0.57393967  0.90727300  0.34188600  1.0
  Ni  Ni366  1  0.90727300  0.24060633  0.34188600  1.0
  Ni  Ni367  1  0.90727300  0.57393967  0.34188600  1.0
  Ni  Ni368  1  0.90727300  0.90727300  0.34188600  1.0
  Ni  Ni369  1  0.12942167  0.12942167  0.38944200  1.0
  Ni  Ni370  1  0.12942167  0.46275500  0.38944200  1.0
  Ni  Ni371  1  0.12942167  0.79608833  0.38944200  1.0
  Ni  Ni372  1  0.46275500  0.12942167  0.38944200  1.0
  Ni  Ni373  1  0.46275500  0.46275500  0.38944200  1.0
  Ni  Ni374  1  0.46275500  0.79608833  0.38944200  1.0
  Ni  Ni375  1  0.79608833  0.12942167  0.38944200  1.0
  Ni  Ni376  1  0.79608833  0.46275500  0.38944200  1.0
  Ni  Ni377  1  0.79608833  0.79608833  0.38944200  1.0
  Ni  Ni378  1  0.12999600  0.12999600  0.31866943  1.0
  Ni  Ni379  1  0.12999600  0.46332933  0.31866943  1.0
  Ni  Ni380  1  0.12999600  0.79666267  0.31866943  1.0
  Ni  Ni381  1  0.46332933  0.12999600  0.31866943  1.0
  Ni  Ni382  1  0.46332933  0.46332933  0.31866943  1.0
  Ni  Ni383  1  0.46332933  0.79666267  0.31866943  1.0
  Ni  Ni384  1  0.79666267  0.12999600  0.31866943  1.0
  Ni  Ni385  1  0.79666267  0.46332933  0.31866943  1.0
  Ni  Ni386  1  0.79666267  0.79666267  0.31866943  1.0
  Ni  Ni387  1  0.20391167  0.20391167  0.31043343  1.0
  Ni  Ni388  1  0.20391167  0.53724500  0.31043343  1.0
  Ni  Ni389  1  0.20391167  0.87057833  0.31043343  1.0
  Ni  Ni390  1  0.53724500  0.20391167  0.31043343  1.0
  Ni  Ni391  1  0.53724500  0.53724500  0.31043343  1.0
  Ni  Ni392  1  0.53724500  0.87057833  0.31043343  1.0
  Ni  Ni393  1  0.87057833  0.20391167  0.31043343  1.0
  Ni  Ni394  1  0.87057833  0.53724500  0.31043343  1.0
  Ni  Ni395  1  0.87057833  0.87057833  0.31043343  1.0
  Ni  Ni396  1  0.00000000  0.16666667  0.42136629  1.0
  Ni  Ni397  1  0.00000000  0.50000000  0.42136629  1.0
  Ni  Ni398  1  0.00000000  0.83333333  0.42136629  1.0
  Ni  Ni399  1  0.33333333  0.16666667  0.42136629  1.0
  Ni  Ni400  1  0.33333333  0.50000000  0.42136629  1.0
  Ni  Ni401  1  0.33333333  0.83333333  0.42136629  1.0
  Ni  Ni402  1  0.66666667  0.16666667  0.42136629  1.0
  Ni  Ni403  1  0.66666667  0.50000000  0.42136629  1.0
  Ni  Ni404  1  0.66666667  0.83333333  0.42136629  1.0
  Ni  Ni405  1  0.20333733  0.03628867  0.38120600  1.0
  Ni  Ni406  1  0.20333733  0.36962200  0.38120600  1.0
  Ni  Ni407  1  0.20333733  0.70295533  0.38120600  1.0
  Ni  Ni408  1  0.53667067  0.03628867  0.38120600  1.0
  Ni  Ni409  1  0.53667067  0.36962200  0.38120600  1.0
  Ni  Ni410  1  0.53667067  0.70295533  0.38120600  1.0
  Ni  Ni411  1  0.87000400  0.03628867  0.38120600  1.0
  Ni  Ni412  1  0.87000400  0.36962200  0.38120600  1.0
  Ni  Ni413  1  0.87000400  0.70295533  0.38120600  1.0
  Ni  Ni414  1  0.16666667  0.16666667  0.42136629  1.0
  Ni  Ni415  1  0.16666667  0.50000000  0.42136629  1.0
  Ni  Ni416  1  0.16666667  0.83333333  0.42136629  1.0
  Ni  Ni417  1  0.50000000  0.16666667  0.42136629  1.0
  Ni  Ni418  1  0.50000000  0.50000000  0.42136629  1.0
  Ni  Ni419  1  0.50000000  0.83333333  0.42136629  1.0
  Ni  Ni420  1  0.83333333  0.16666667  0.42136629  1.0
  Ni  Ni421  1  0.83333333  0.50000000  0.42136629  1.0
  Ni  Ni422  1  0.83333333  0.83333333  0.42136629  1.0
  Ni  Ni423  1  0.12999600  0.29704467  0.31866943  1.0
  Ni  Ni424  1  0.12999600  0.63037800  0.31866943  1.0
  Ni  Ni425  1  0.12999600  0.96371133  0.31866943  1.0
  Ni  Ni426  1  0.46332933  0.29704467  0.31866943  1.0
  Ni  Ni427  1  0.46332933  0.63037800  0.31866943  1.0
  Ni  Ni428  1  0.46332933  0.96371133  0.31866943  1.0
  Ni  Ni429  1  0.79666267  0.29704467  0.31866943  1.0
  Ni  Ni430  1  0.79666267  0.63037800  0.31866943  1.0
  Ni  Ni431  1  0.79666267  0.96371133  0.31866943  1.0
  Ni  Ni432  1  0.09272700  0.09272700  0.35798943  1.0
  Ni  Ni433  1  0.09272700  0.42606033  0.35798943  1.0
  Ni  Ni434  1  0.09272700  0.75939367  0.35798943  1.0
  Ni  Ni435  1  0.42606033  0.09272700  0.35798943  1.0
  Ni  Ni436  1  0.42606033  0.42606033  0.35798943  1.0
  Ni  Ni437  1  0.42606033  0.75939367  0.35798943  1.0
  Ni  Ni438  1  0.75939367  0.09272700  0.35798943  1.0
  Ni  Ni439  1  0.75939367  0.42606033  0.35798943  1.0
  Ni  Ni440  1  0.75939367  0.75939367  0.35798943  1.0
  Ni  Ni441  1  0.20333733  0.20333733  0.38120600  1.0
  Ni  Ni442  1  0.20333733  0.53667067  0.38120600  1.0
  Ni  Ni443  1  0.20333733  0.87000400  0.38120600  1.0
  Ni  Ni444  1  0.53667067  0.20333733  0.38120600  1.0
  Ni  Ni445  1  0.53667067  0.53667067  0.38120600  1.0
  Ni  Ni446  1  0.53667067  0.87000400  0.38120600  1.0
  Ni  Ni447  1  0.87000400  0.20333733  0.38120600  1.0
  Ni  Ni448  1  0.87000400  0.53667067  0.38120600  1.0
  Ni  Ni449  1  0.87000400  0.87000400  0.38120600  1.0
  Ni  Ni450  1  0.29704467  0.12999600  0.38993429  1.0
  Ni  Ni451  1  0.29704467  0.46332933  0.38993429  1.0
  Ni  Ni452  1  0.29704467  0.79666267  0.38993429  1.0
  Ni  Ni453  1  0.63037800  0.12999600  0.38993429  1.0
  Ni  Ni454  1  0.63037800  0.46332933  0.38993429  1.0
  Ni  Ni455  1  0.63037800  0.79666267  0.38993429  1.0
  Ni  Ni456  1  0.96371133  0.12999600  0.38993429  1.0
  Ni  Ni457  1  0.96371133  0.46332933  0.38993429  1.0
  Ni  Ni458  1  0.96371133  0.79666267  0.38993429  1.0
  Ni  Ni459  1  0.16666667  0.16666667  0.34993771  1.0
  Ni  Ni460  1  0.16666667  0.50000000  0.34993771  1.0
  Ni  Ni461  1  0.16666667  0.83333333  0.34993771  1.0
  Ni  Ni462  1  0.50000000  0.16666667  0.34993771  1.0
  Ni  Ni463  1  0.50000000  0.50000000  0.34993771  1.0
  Ni  Ni464  1  0.50000000  0.83333333  0.34993771  1.0
  Ni  Ni465  1  0.83333333  0.16666667  0.34993771  1.0
  Ni  Ni466  1  0.83333333  0.50000000  0.34993771  1.0
  Ni  Ni467  1  0.83333333  0.83333333  0.34993771  1.0
  Ni  Ni468  1  0.16666667  0.00000000  0.34993771  1.0
  Ni  Ni469  1  0.16666667  0.33333333  0.34993771  1.0
  Ni  Ni470  1  0.16666667  0.66666667  0.34993771  1.0
  Ni  Ni471  1  0.50000000  0.00000000  0.34993771  1.0
  Ni  Ni472  1  0.50000000  0.33333333  0.34993771  1.0
  Ni  Ni473  1  0.50000000  0.66666667  0.34993771  1.0
  Ni  Ni474  1  0.83333333  0.00000000  0.34993771  1.0
  Ni  Ni475  1  0.83333333  0.33333333  0.34993771  1.0
  Ni  Ni476  1  0.83333333  0.66666667  0.34993771  1.0
  Ni  Ni477  1  0.03628867  0.20333733  0.30994114  1.0
  Ni  Ni478  1  0.03628867  0.53667067  0.30994114  1.0
  Ni  Ni479  1  0.03628867  0.87000400  0.30994114  1.0
  Ni  Ni480  1  0.36962200  0.20333733  0.30994114  1.0
  Ni  Ni481  1  0.36962200  0.53667067  0.30994114  1.0
  Ni  Ni482  1  0.36962200  0.87000400  0.30994114  1.0
  Ni  Ni483  1  0.70295533  0.20333733  0.30994114  1.0
  Ni  Ni484  1  0.70295533  0.53667067  0.30994114  1.0
  Ni  Ni485  1  0.70295533  0.87000400  0.30994114  1.0
