# generated using pymatgen
data_Y2Ni7
_symmetry_space_group_name_H-M   'P 1'
_cell_length_a   14.77587600
_cell_length_b   14.77587600
_cell_length_c   48.21849800
_cell_angle_alpha   90.00000000
_cell_angle_beta   90.00000000
_cell_angle_gamma   120.00000000
_symmetry_Int_Tables_number   1
_chemical_formula_structural   Y2Ni7
_chemical_formula_sum   'Y72 Ni252'
_cell_volume   9116.97545074
_cell_formula_units_Z   36
loop_
 _symmetry_equiv_pos_site_id
 _symmetry_equiv_pos_as_xyz
  1  'x, y, z'
loop_
 _atom_site_type_symbol
 _atom_site_label
 _atom_site_symmetry_multiplicity
 _atom_site_fract_x
 _atom_site_fract_y
 _atom_site_fract_z
 _atom_site_occupancy
  Y  Y0  1  0.22222222  0.11111111  0.47750825  1.0
  Y  Y1  1  0.22222222  0.44444444  0.47750825  1.0
  Y  Y2  1  0.22222222  0.77777778  0.47750825  1.0
  Y  Y3  1  0.55555556  0.11111111  0.47750825  1.0
  Y  Y4  1  0.55555556  0.44444444  0.47750825  1.0
  Y  Y5  1  0.55555556  0.77777778  0.47750825  1.0
  Y  Y6  1  0.88888889  0.11111111  0.47750825  1.0
  Y  Y7  1  0.88888889  0.44444444  0.47750825  1.0
  Y  Y8  1  0.88888889  0.77777778  0.47750825  1.0
  Y  Y9  1  0.11111111  0.22222222  0.00749725  1.0
  Y  Y10  1  0.11111111  0.55555556  0.00749725  1.0
  Y  Y11  1  0.11111111  0.88888889  0.00749725  1.0
  Y  Y12  1  0.44444444  0.22222222  0.00749725  1.0
  Y  Y13  1  0.44444444  0.55555556  0.00749725  1.0
  Y  Y14  1  0.44444444  0.88888889  0.00749725  1.0
  Y  Y15  1  0.77777778  0.22222222  0.00749725  1.0
  Y  Y16  1  0.77777778  0.55555556  0.00749725  1.0
  Y  Y17  1  0.77777778  0.88888889  0.00749725  1.0
  Y  Y18  1  0.11111111  0.22222222  0.22750825  1.0
  Y  Y19  1  0.11111111  0.55555556  0.22750825  1.0
  Y  Y20  1  0.11111111  0.88888889  0.22750825  1.0
  Y  Y21  1  0.44444444  0.22222222  0.22750825  1.0
  Y  Y22  1  0.44444444  0.55555556  0.22750825  1.0
  Y  Y23  1  0.44444444  0.88888889  0.22750825  1.0
  Y  Y24  1  0.77777778  0.22222222  0.22750825  1.0
  Y  Y25  1  0.77777778  0.55555556  0.22750825  1.0
  Y  Y26  1  0.77777778  0.88888889  0.22750825  1.0
  Y  Y27  1  0.22222222  0.11111111  0.25749725  1.0
  Y  Y28  1  0.22222222  0.44444444  0.25749725  1.0
  Y  Y29  1  0.22222222  0.77777778  0.25749725  1.0
  Y  Y30  1  0.55555556  0.11111111  0.25749725  1.0
  Y  Y31  1  0.55555556  0.44444444  0.25749725  1.0
  Y  Y32  1  0.55555556  0.77777778  0.25749725  1.0
  Y  Y33  1  0.88888889  0.11111111  0.25749725  1.0
  Y  Y34  1  0.88888889  0.44444444  0.25749725  1.0
  Y  Y35  1  0.88888889  0.77777778  0.25749725  1.0
  Y  Y36  1  0.22222222  0.11111111  0.40535025  1.0
  Y  Y37  1  0.22222222  0.44444444  0.40535025  1.0
  Y  Y38  1  0.22222222  0.77777778  0.40535025  1.0
  Y  Y39  1  0.55555556  0.11111111  0.40535025  1.0
  Y  Y40  1  0.55555556  0.44444444  0.40535025  1.0
  Y  Y41  1  0.55555556  0.77777778  0.40535025  1.0
  Y  Y42  1  0.88888889  0.11111111  0.40535025  1.0
  Y  Y43  1  0.88888889  0.44444444  0.40535025  1.0
  Y  Y44  1  0.88888889  0.77777778  0.40535025  1.0
  Y  Y45  1  0.11111111  0.22222222  0.07965525  1.0
  Y  Y46  1  0.11111111  0.55555556  0.07965525  1.0
  Y  Y47  1  0.11111111  0.88888889  0.07965525  1.0
  Y  Y48  1  0.44444444  0.22222222  0.07965525  1.0
  Y  Y49  1  0.44444444  0.55555556  0.07965525  1.0
  Y  Y50  1  0.44444444  0.88888889  0.07965525  1.0
  Y  Y51  1  0.77777778  0.22222222  0.07965525  1.0
  Y  Y52  1  0.77777778  0.55555556  0.07965525  1.0
  Y  Y53  1  0.77777778  0.88888889  0.07965525  1.0
  Y  Y54  1  0.11111111  0.22222222  0.15535025  1.0
  Y  Y55  1  0.11111111  0.55555556  0.15535025  1.0
  Y  Y56  1  0.11111111  0.88888889  0.15535025  1.0
  Y  Y57  1  0.44444444  0.22222222  0.15535025  1.0
  Y  Y58  1  0.44444444  0.55555556  0.15535025  1.0
  Y  Y59  1  0.44444444  0.88888889  0.15535025  1.0
  Y  Y60  1  0.77777778  0.22222222  0.15535025  1.0
  Y  Y61  1  0.77777778  0.55555556  0.15535025  1.0
  Y  Y62  1  0.77777778  0.88888889  0.15535025  1.0
  Y  Y63  1  0.22222222  0.11111111  0.32965525  1.0
  Y  Y64  1  0.22222222  0.44444444  0.32965525  1.0
  Y  Y65  1  0.22222222  0.77777778  0.32965525  1.0
  Y  Y66  1  0.55555556  0.11111111  0.32965525  1.0
  Y  Y67  1  0.55555556  0.44444444  0.32965525  1.0
  Y  Y68  1  0.55555556  0.77777778  0.32965525  1.0
  Y  Y69  1  0.88888889  0.11111111  0.32965525  1.0
  Y  Y70  1  0.88888889  0.44444444  0.32965525  1.0
  Y  Y71  1  0.88888889  0.77777778  0.32965525  1.0
  Ni  Ni72  1  0.00000000  0.00000000  0.49250275  1.0
  Ni  Ni73  1  0.00000000  0.33333333  0.49250275  1.0
  Ni  Ni74  1  0.00000000  0.66666667  0.49250275  1.0
  Ni  Ni75  1  0.33333333  0.00000000  0.49250275  1.0
  Ni  Ni76  1  0.33333333  0.33333333  0.49250275  1.0
  Ni  Ni77  1  0.33333333  0.66666667  0.49250275  1.0
  Ni  Ni78  1  0.66666667  0.00000000  0.49250275  1.0
  Ni  Ni79  1  0.66666667  0.33333333  0.49250275  1.0
  Ni  Ni80  1  0.66666667  0.66666667  0.49250275  1.0
  Ni  Ni81  1  0.00000000  0.00000000  0.24250275  1.0
  Ni  Ni82  1  0.00000000  0.33333333  0.24250275  1.0
  Ni  Ni83  1  0.00000000  0.66666667  0.24250275  1.0
  Ni  Ni84  1  0.33333333  0.00000000  0.24250275  1.0
  Ni  Ni85  1  0.33333333  0.33333333  0.24250275  1.0
  Ni  Ni86  1  0.33333333  0.66666667  0.24250275  1.0
  Ni  Ni87  1  0.66666667  0.00000000  0.24250275  1.0
  Ni  Ni88  1  0.66666667  0.33333333  0.24250275  1.0
  Ni  Ni89  1  0.66666667  0.66666667  0.24250275  1.0
  Ni  Ni90  1  0.05584567  0.11169133  0.36750275  1.0
  Ni  Ni91  1  0.05584567  0.44502467  0.36750275  1.0
  Ni  Ni92  1  0.05584567  0.77835800  0.36750275  1.0
  Ni  Ni93  1  0.38917900  0.11169133  0.36750275  1.0
  Ni  Ni94  1  0.38917900  0.44502467  0.36750275  1.0
  Ni  Ni95  1  0.38917900  0.77835800  0.36750275  1.0
  Ni  Ni96  1  0.72251233  0.11169133  0.36750275  1.0
  Ni  Ni97  1  0.72251233  0.44502467  0.36750275  1.0
  Ni  Ni98  1  0.72251233  0.77835800  0.36750275  1.0
  Ni  Ni99  1  0.22164200  0.27748767  0.36750275  1.0
  Ni  Ni100  1  0.22164200  0.61082100  0.36750275  1.0
  Ni  Ni101  1  0.22164200  0.94415433  0.36750275  1.0
  Ni  Ni102  1  0.55497533  0.27748767  0.36750275  1.0
  Ni  Ni103  1  0.55497533  0.61082100  0.36750275  1.0
  Ni  Ni104  1  0.55497533  0.94415433  0.36750275  1.0
  Ni  Ni105  1  0.88830867  0.27748767  0.36750275  1.0
  Ni  Ni106  1  0.88830867  0.61082100  0.36750275  1.0
  Ni  Ni107  1  0.88830867  0.94415433  0.36750275  1.0
  Ni  Ni108  1  0.05584567  0.27748767  0.36750275  1.0
  Ni  Ni109  1  0.05584567  0.61082100  0.36750275  1.0
  Ni  Ni110  1  0.05584567  0.94415433  0.36750275  1.0
  Ni  Ni111  1  0.38917900  0.27748767  0.36750275  1.0
  Ni  Ni112  1  0.38917900  0.61082100  0.36750275  1.0
  Ni  Ni113  1  0.38917900  0.94415433  0.36750275  1.0
  Ni  Ni114  1  0.72251233  0.27748767  0.36750275  1.0
  Ni  Ni115  1  0.72251233  0.61082100  0.36750275  1.0
  Ni  Ni116  1  0.72251233  0.94415433  0.36750275  1.0
  Ni  Ni117  1  0.27748767  0.22164200  0.11750275  1.0
  Ni  Ni118  1  0.27748767  0.55497533  0.11750275  1.0
  Ni  Ni119  1  0.27748767  0.88830867  0.11750275  1.0
  Ni  Ni120  1  0.61082100  0.22164200  0.11750275  1.0
  Ni  Ni121  1  0.61082100  0.55497533  0.11750275  1.0
  Ni  Ni122  1  0.61082100  0.88830867  0.11750275  1.0
  Ni  Ni123  1  0.94415433  0.22164200  0.11750275  1.0
  Ni  Ni124  1  0.94415433  0.55497533  0.11750275  1.0
  Ni  Ni125  1  0.94415433  0.88830867  0.11750275  1.0
  Ni  Ni126  1  0.11169133  0.05584567  0.11750275  1.0
  Ni  Ni127  1  0.11169133  0.38917900  0.11750275  1.0
  Ni  Ni128  1  0.11169133  0.72251233  0.11750275  1.0
  Ni  Ni129  1  0.44502467  0.05584567  0.11750275  1.0
  Ni  Ni130  1  0.44502467  0.38917900  0.11750275  1.0
  Ni  Ni131  1  0.44502467  0.72251233  0.11750275  1.0
  Ni  Ni132  1  0.77835800  0.05584567  0.11750275  1.0
  Ni  Ni133  1  0.77835800  0.38917900  0.11750275  1.0
  Ni  Ni134  1  0.77835800  0.72251233  0.11750275  1.0
  Ni  Ni135  1  0.27748767  0.05584567  0.11750275  1.0
  Ni  Ni136  1  0.27748767  0.38917900  0.11750275  1.0
  Ni  Ni137  1  0.27748767  0.72251233  0.11750275  1.0
  Ni  Ni138  1  0.61082100  0.05584567  0.11750275  1.0
  Ni  Ni139  1  0.61082100  0.38917900  0.11750275  1.0
  Ni  Ni140  1  0.61082100  0.72251233  0.11750275  1.0
  Ni  Ni141  1  0.94415433  0.05584567  0.11750275  1.0
  Ni  Ni142  1  0.94415433  0.38917900  0.11750275  1.0
  Ni  Ni143  1  0.94415433  0.72251233  0.11750275  1.0
  Ni  Ni144  1  0.05546867  0.11093733  0.44923825  1.0
  Ni  Ni145  1  0.05546867  0.44427067  0.44923825  1.0
  Ni  Ni146  1  0.05546867  0.77760400  0.44923825  1.0
  Ni  Ni147  1  0.38880200  0.11093733  0.44923825  1.0
  Ni  Ni148  1  0.38880200  0.44427067  0.44923825  1.0
  Ni  Ni149  1  0.38880200  0.77760400  0.44923825  1.0
  Ni  Ni150  1  0.72213533  0.11093733  0.44923825  1.0
  Ni  Ni151  1  0.72213533  0.44427067  0.44923825  1.0
  Ni  Ni152  1  0.72213533  0.77760400  0.44923825  1.0
  Ni  Ni153  1  0.22239600  0.27786467  0.44923825  1.0
  Ni  Ni154  1  0.22239600  0.61119800  0.44923825  1.0
  Ni  Ni155  1  0.22239600  0.94453133  0.44923825  1.0
  Ni  Ni156  1  0.55572933  0.27786467  0.44923825  1.0
  Ni  Ni157  1  0.55572933  0.61119800  0.44923825  1.0
  Ni  Ni158  1  0.55572933  0.94453133  0.44923825  1.0
  Ni  Ni159  1  0.88906267  0.27786467  0.44923825  1.0
  Ni  Ni160  1  0.88906267  0.61119800  0.44923825  1.0
  Ni  Ni161  1  0.88906267  0.94453133  0.44923825  1.0
  Ni  Ni162  1  0.05546867  0.27786467  0.44923825  1.0
  Ni  Ni163  1  0.05546867  0.61119800  0.44923825  1.0
  Ni  Ni164  1  0.05546867  0.94453133  0.44923825  1.0
  Ni  Ni165  1  0.38880200  0.27786467  0.44923825  1.0
  Ni  Ni166  1  0.38880200  0.61119800  0.44923825  1.0
  Ni  Ni167  1  0.38880200  0.94453133  0.44923825  1.0
  Ni  Ni168  1  0.72213533  0.27786467  0.44923825  1.0
  Ni  Ni169  1  0.72213533  0.61119800  0.44923825  1.0
  Ni  Ni170  1  0.72213533  0.94453133  0.44923825  1.0
  Ni  Ni171  1  0.27786467  0.22239600  0.03576725  1.0
  Ni  Ni172  1  0.27786467  0.55572933  0.03576725  1.0
  Ni  Ni173  1  0.27786467  0.88906267  0.03576725  1.0
  Ni  Ni174  1  0.61119800  0.22239600  0.03576725  1.0
  Ni  Ni175  1  0.61119800  0.55572933  0.03576725  1.0
  Ni  Ni176  1  0.61119800  0.88906267  0.03576725  1.0
  Ni  Ni177  1  0.94453133  0.22239600  0.03576725  1.0
  Ni  Ni178  1  0.94453133  0.55572933  0.03576725  1.0
  Ni  Ni179  1  0.94453133  0.88906267  0.03576725  1.0
  Ni  Ni180  1  0.11093733  0.05546867  0.03576725  1.0
  Ni  Ni181  1  0.11093733  0.38880200  0.03576725  1.0
  Ni  Ni182  1  0.11093733  0.72213533  0.03576725  1.0
  Ni  Ni183  1  0.44427067  0.05546867  0.03576725  1.0
  Ni  Ni184  1  0.44427067  0.38880200  0.03576725  1.0
  Ni  Ni185  1  0.44427067  0.72213533  0.03576725  1.0
  Ni  Ni186  1  0.77760400  0.05546867  0.03576725  1.0
  Ni  Ni187  1  0.77760400  0.38880200  0.03576725  1.0
  Ni  Ni188  1  0.77760400  0.72213533  0.03576725  1.0
  Ni  Ni189  1  0.27786467  0.05546867  0.03576725  1.0
  Ni  Ni190  1  0.27786467  0.38880200  0.03576725  1.0
  Ni  Ni191  1  0.27786467  0.72213533  0.03576725  1.0
  Ni  Ni192  1  0.61119800  0.05546867  0.03576725  1.0
  Ni  Ni193  1  0.61119800  0.38880200  0.03576725  1.0
  Ni  Ni194  1  0.61119800  0.72213533  0.03576725  1.0
  Ni  Ni195  1  0.94453133  0.05546867  0.03576725  1.0
  Ni  Ni196  1  0.94453133  0.38880200  0.03576725  1.0
  Ni  Ni197  1  0.94453133  0.72213533  0.03576725  1.0
  Ni  Ni198  1  0.27786467  0.22239600  0.19923825  1.0
  Ni  Ni199  1  0.27786467  0.55572933  0.19923825  1.0
  Ni  Ni200  1  0.27786467  0.88906267  0.19923825  1.0
  Ni  Ni201  1  0.61119800  0.22239600  0.19923825  1.0
  Ni  Ni202  1  0.61119800  0.55572933  0.19923825  1.0
  Ni  Ni203  1  0.61119800  0.88906267  0.19923825  1.0
  Ni  Ni204  1  0.94453133  0.22239600  0.19923825  1.0
  Ni  Ni205  1  0.94453133  0.55572933  0.19923825  1.0
  Ni  Ni206  1  0.94453133  0.88906267  0.19923825  1.0
  Ni  Ni207  1  0.11093733  0.05546867  0.19923825  1.0
  Ni  Ni208  1  0.11093733  0.38880200  0.19923825  1.0
  Ni  Ni209  1  0.11093733  0.72213533  0.19923825  1.0
  Ni  Ni210  1  0.44427067  0.05546867  0.19923825  1.0
  Ni  Ni211  1  0.44427067  0.38880200  0.19923825  1.0
  Ni  Ni212  1  0.44427067  0.72213533  0.19923825  1.0
  Ni  Ni213  1  0.77760400  0.05546867  0.19923825  1.0
  Ni  Ni214  1  0.77760400  0.38880200  0.19923825  1.0
  Ni  Ni215  1  0.77760400  0.72213533  0.19923825  1.0
  Ni  Ni216  1  0.27786467  0.05546867  0.19923825  1.0
  Ni  Ni217  1  0.27786467  0.38880200  0.19923825  1.0
  Ni  Ni218  1  0.27786467  0.72213533  0.19923825  1.0
  Ni  Ni219  1  0.61119800  0.05546867  0.19923825  1.0
  Ni  Ni220  1  0.61119800  0.38880200  0.19923825  1.0
  Ni  Ni221  1  0.61119800  0.72213533  0.19923825  1.0
  Ni  Ni222  1  0.94453133  0.05546867  0.19923825  1.0
  Ni  Ni223  1  0.94453133  0.38880200  0.19923825  1.0
  Ni  Ni224  1  0.94453133  0.72213533  0.19923825  1.0
  Ni  Ni225  1  0.05546867  0.11093733  0.28576725  1.0
  Ni  Ni226  1  0.05546867  0.44427067  0.28576725  1.0
  Ni  Ni227  1  0.05546867  0.77760400  0.28576725  1.0
  Ni  Ni228  1  0.38880200  0.11093733  0.28576725  1.0
  Ni  Ni229  1  0.38880200  0.44427067  0.28576725  1.0
  Ni  Ni230  1  0.38880200  0.77760400  0.28576725  1.0
  Ni  Ni231  1  0.72213533  0.11093733  0.28576725  1.0
  Ni  Ni232  1  0.72213533  0.44427067  0.28576725  1.0
  Ni  Ni233  1  0.72213533  0.77760400  0.28576725  1.0
  Ni  Ni234  1  0.22239600  0.27786467  0.28576725  1.0
  Ni  Ni235  1  0.22239600  0.61119800  0.28576725  1.0
  Ni  Ni236  1  0.22239600  0.94453133  0.28576725  1.0
  Ni  Ni237  1  0.55572933  0.27786467  0.28576725  1.0
  Ni  Ni238  1  0.55572933  0.61119800  0.28576725  1.0
  Ni  Ni239  1  0.55572933  0.94453133  0.28576725  1.0
  Ni  Ni240  1  0.88906267  0.27786467  0.28576725  1.0
  Ni  Ni241  1  0.88906267  0.61119800  0.28576725  1.0
  Ni  Ni242  1  0.88906267  0.94453133  0.28576725  1.0
  Ni  Ni243  1  0.05546867  0.27786467  0.28576725  1.0
  Ni  Ni244  1  0.05546867  0.61119800  0.28576725  1.0
  Ni  Ni245  1  0.05546867  0.94453133  0.28576725  1.0
  Ni  Ni246  1  0.38880200  0.27786467  0.28576725  1.0
  Ni  Ni247  1  0.38880200  0.61119800  0.28576725  1.0
  Ni  Ni248  1  0.38880200  0.94453133  0.28576725  1.0
  Ni  Ni249  1  0.72213533  0.27786467  0.28576725  1.0
  Ni  Ni250  1  0.72213533  0.61119800  0.28576725  1.0
  Ni  Ni251  1  0.72213533  0.94453133  0.28576725  1.0
  Ni  Ni252  1  0.00000000  0.00000000  0.40820575  1.0
  Ni  Ni253  1  0.00000000  0.33333333  0.40820575  1.0
  Ni  Ni254  1  0.00000000  0.66666667  0.40820575  1.0
  Ni  Ni255  1  0.33333333  0.00000000  0.40820575  1.0
  Ni  Ni256  1  0.33333333  0.33333333  0.40820575  1.0
  Ni  Ni257  1  0.33333333  0.66666667  0.40820575  1.0
  Ni  Ni258  1  0.66666667  0.00000000  0.40820575  1.0
  Ni  Ni259  1  0.66666667  0.33333333  0.40820575  1.0
  Ni  Ni260  1  0.66666667  0.66666667  0.40820575  1.0
  Ni  Ni261  1  0.00000000  0.00000000  0.07679975  1.0
  Ni  Ni262  1  0.00000000  0.33333333  0.07679975  1.0
  Ni  Ni263  1  0.00000000  0.66666667  0.07679975  1.0
  Ni  Ni264  1  0.33333333  0.00000000  0.07679975  1.0
  Ni  Ni265  1  0.33333333  0.33333333  0.07679975  1.0
  Ni  Ni266  1  0.33333333  0.66666667  0.07679975  1.0
  Ni  Ni267  1  0.66666667  0.00000000  0.07679975  1.0
  Ni  Ni268  1  0.66666667  0.33333333  0.07679975  1.0
  Ni  Ni269  1  0.66666667  0.66666667  0.07679975  1.0
  Ni  Ni270  1  0.00000000  0.00000000  0.15820575  1.0
  Ni  Ni271  1  0.00000000  0.33333333  0.15820575  1.0
  Ni  Ni272  1  0.00000000  0.66666667  0.15820575  1.0
  Ni  Ni273  1  0.33333333  0.00000000  0.15820575  1.0
  Ni  Ni274  1  0.33333333  0.33333333  0.15820575  1.0
  Ni  Ni275  1  0.33333333  0.66666667  0.15820575  1.0
  Ni  Ni276  1  0.66666667  0.00000000  0.15820575  1.0
  Ni  Ni277  1  0.66666667  0.33333333  0.15820575  1.0
  Ni  Ni278  1  0.66666667  0.66666667  0.15820575  1.0
  Ni  Ni279  1  0.00000000  0.00000000  0.32679975  1.0
  Ni  Ni280  1  0.00000000  0.33333333  0.32679975  1.0
  Ni  Ni281  1  0.00000000  0.66666667  0.32679975  1.0
  Ni  Ni282  1  0.33333333  0.00000000  0.32679975  1.0
  Ni  Ni283  1  0.33333333  0.33333333  0.32679975  1.0
  Ni  Ni284  1  0.33333333  0.66666667  0.32679975  1.0
  Ni  Ni285  1  0.66666667  0.00000000  0.32679975  1.0
  Ni  Ni286  1  0.66666667  0.33333333  0.32679975  1.0
  Ni  Ni287  1  0.66666667  0.66666667  0.32679975  1.0
  Ni  Ni288  1  0.22222222  0.11111111  0.07617225  1.0
  Ni  Ni289  1  0.22222222  0.44444444  0.07617225  1.0
  Ni  Ni290  1  0.22222222  0.77777778  0.07617225  1.0
  Ni  Ni291  1  0.55555556  0.11111111  0.07617225  1.0
  Ni  Ni292  1  0.55555556  0.44444444  0.07617225  1.0
  Ni  Ni293  1  0.55555556  0.77777778  0.07617225  1.0
  Ni  Ni294  1  0.88888889  0.11111111  0.07617225  1.0
  Ni  Ni295  1  0.88888889  0.44444444  0.07617225  1.0
  Ni  Ni296  1  0.88888889  0.77777778  0.07617225  1.0
  Ni  Ni297  1  0.11111111  0.22222222  0.40883325  1.0
  Ni  Ni298  1  0.11111111  0.55555556  0.40883325  1.0
  Ni  Ni299  1  0.11111111  0.88888889  0.40883325  1.0
  Ni  Ni300  1  0.44444444  0.22222222  0.40883325  1.0
  Ni  Ni301  1  0.44444444  0.55555556  0.40883325  1.0
  Ni  Ni302  1  0.44444444  0.88888889  0.40883325  1.0
  Ni  Ni303  1  0.77777778  0.22222222  0.40883325  1.0
  Ni  Ni304  1  0.77777778  0.55555556  0.40883325  1.0
  Ni  Ni305  1  0.77777778  0.88888889  0.40883325  1.0
  Ni  Ni306  1  0.11111111  0.22222222  0.32617225  1.0
  Ni  Ni307  1  0.11111111  0.55555556  0.32617225  1.0
  Ni  Ni308  1  0.11111111  0.88888889  0.32617225  1.0
  Ni  Ni309  1  0.44444444  0.22222222  0.32617225  1.0
  Ni  Ni310  1  0.44444444  0.55555556  0.32617225  1.0
  Ni  Ni311  1  0.44444444  0.88888889  0.32617225  1.0
  Ni  Ni312  1  0.77777778  0.22222222  0.32617225  1.0
  Ni  Ni313  1  0.77777778  0.55555556  0.32617225  1.0
  Ni  Ni314  1  0.77777778  0.88888889  0.32617225  1.0
  Ni  Ni315  1  0.22222222  0.11111111  0.15883325  1.0
  Ni  Ni316  1  0.22222222  0.44444444  0.15883325  1.0
  Ni  Ni317  1  0.22222222  0.77777778  0.15883325  1.0
  Ni  Ni318  1  0.55555556  0.11111111  0.15883325  1.0
  Ni  Ni319  1  0.55555556  0.44444444  0.15883325  1.0
  Ni  Ni320  1  0.55555556  0.77777778  0.15883325  1.0
  Ni  Ni321  1  0.88888889  0.11111111  0.15883325  1.0
  Ni  Ni322  1  0.88888889  0.44444444  0.15883325  1.0
  Ni  Ni323  1  0.88888889  0.77777778  0.15883325  1.0
