# generated using pymatgen
data_Y2Ni7
_symmetry_space_group_name_H-M   'P 1'
_cell_length_a   14.81365210
_cell_length_b   39.95367990
_cell_length_c   30.94531695
_cell_angle_alpha   92.46084250
_cell_angle_beta   90.00000000
_cell_angle_gamma   90.00000000
_symmetry_Int_Tables_number   1
_chemical_formula_structural   Y2Ni7
_chemical_formula_sum   'Y144 Ni504'
_cell_volume   18298.40224378
_cell_formula_units_Z   72
loop_
 _symmetry_equiv_pos_site_id
 _symmetry_equiv_pos_as_xyz
  1  'x, y, z'
loop_
 _atom_site_type_symbol
 _atom_site_label
 _atom_site_symmetry_multiplicity
 _atom_site_fract_x
 _atom_site_fract_y
 _atom_site_fract_z
 _atom_site_occupancy
  Ni  Ni0  1  0.33333333  0.10533446  0.86472813  1.0
  Ni  Ni1  1  0.33333333  0.43866779  0.86472813  1.0
  Ni  Ni2  1  0.33333333  0.77200112  0.86472812  1.0
  Ni  Ni3  1  0.66666667  0.10533446  0.86472812  1.0
  Ni  Ni4  1  0.66666667  0.43866779  0.86472813  1.0
  Ni  Ni5  1  0.66666667  0.77200112  0.86472813  1.0
  Ni  Ni6  1  0.00000000  0.10533446  0.86472813  1.0
  Ni  Ni7  1  0.00000000  0.43866779  0.86472812  1.0
  Ni  Ni8  1  0.00000000  0.77200112  0.86472813  1.0
  Ni  Ni9  1  0.16666667  0.06366779  0.98972812  1.0
  Ni  Ni10  1  0.16666667  0.39700113  0.98972812  1.0
  Ni  Ni11  1  0.16666667  0.73033446  0.98972812  1.0
  Ni  Ni12  1  0.50000000  0.06366779  0.98972812  1.0
  Ni  Ni13  1  0.50000000  0.39700113  0.98972812  1.0
  Ni  Ni14  1  0.50000000  0.73033446  0.98972812  1.0
  Ni  Ni15  1  0.83333333  0.06366779  0.98972812  1.0
  Ni  Ni16  1  0.83333333  0.39700113  0.98972812  1.0
  Ni  Ni17  1  0.83333333  0.73033446  0.98972812  1.0
  Ni  Ni18  1  0.33333333  0.07737279  0.94795112  1.0
  Ni  Ni19  1  0.33333333  0.41070612  0.94795112  1.0
  Ni  Ni20  1  0.33333333  0.74403946  0.94795112  1.0
  Ni  Ni21  1  0.66666667  0.07737279  0.94795112  1.0
  Ni  Ni22  1  0.66666667  0.41070612  0.94795112  1.0
  Ni  Ni23  1  0.66666667  0.74403946  0.94795113  1.0
  Ni  Ni24  1  0.00000000  0.07737279  0.94795112  1.0
  Ni  Ni25  1  0.00000000  0.41070612  0.94795112  1.0
  Ni  Ni26  1  1.00000000  0.74403946  0.94795113  1.0
  Ni  Ni27  1  0.16666667  0.11903946  0.82295112  1.0
  Ni  Ni28  1  0.16666667  0.45237279  0.82295112  1.0
  Ni  Ni29  1  0.16666667  0.78570612  0.82295112  1.0
  Ni  Ni30  1  0.50000000  0.11903946  0.82295112  1.0
  Ni  Ni31  1  0.50000000  0.45237279  0.82295112  1.0
  Ni  Ni32  1  0.50000000  0.78570612  0.82295112  1.0
  Ni  Ni33  1  0.83333333  0.11903946  0.82295112  1.0
  Ni  Ni34  1  0.83333333  0.45237279  0.82295112  1.0
  Ni  Ni35  1  0.83333333  0.78570612  0.82295112  1.0
  Ni  Ni36  1  0.00000000  0.28742846  0.82409913  1.0
  Ni  Ni37  1  0.00000000  0.62076179  0.82409913  1.0
  Ni  Ni38  1  0.00000000  0.95409512  0.82409912  1.0
  Ni  Ni39  1  0.33333333  0.28742846  0.82409912  1.0
  Ni  Ni40  1  0.33333333  0.62076179  0.82409913  1.0
  Ni  Ni41  1  0.33333333  0.95409512  0.82409913  1.0
  Ni  Ni42  1  0.66666667  0.28742846  0.82409913  1.0
  Ni  Ni43  1  0.66666667  0.62076179  0.82409912  1.0
  Ni  Ni44  1  0.66666667  0.95409512  0.82409912  1.0
  Ni  Ni45  1  0.16666667  0.24576179  0.94909912  1.0
  Ni  Ni46  1  0.16666667  0.57909513  0.94909913  1.0
  Ni  Ni47  1  0.16666667  0.91242846  0.94909912  1.0
  Ni  Ni48  1  0.50000000  0.24576179  0.94909912  1.0
  Ni  Ni49  1  0.50000000  0.57909513  0.94909912  1.0
  Ni  Ni50  1  0.50000000  0.91242846  0.94909913  1.0
  Ni  Ni51  1  0.83333333  0.24576179  0.94909912  1.0
  Ni  Ni52  1  0.83333333  0.57909513  0.94909912  1.0
  Ni  Ni53  1  0.83333333  0.91242846  0.94909912  1.0
  Ni  Ni54  1  0.00000000  0.01359779  0.80968612  1.0
  Ni  Ni55  1  0.00000000  0.34693113  0.80968613  1.0
  Ni  Ni56  1  0.00000000  0.68026446  0.80968612  1.0
  Ni  Ni57  1  0.33333333  0.01359779  0.80968612  1.0
  Ni  Ni58  1  0.33333333  0.34693113  0.80968612  1.0
  Ni  Ni59  1  0.33333333  0.68026446  0.80968613  1.0
  Ni  Ni60  1  0.66666667  0.01359779  0.80968613  1.0
  Ni  Ni61  1  0.66666667  0.34693113  0.80968612  1.0
  Ni  Ni62  1  0.66666667  0.68026446  0.80968612  1.0
  Ni  Ni63  1  0.16666667  0.30526446  0.93468612  1.0
  Ni  Ni64  1  0.16666667  0.63859779  0.93468613  1.0
  Ni  Ni65  1  0.16666667  0.97193113  0.93468612  1.0
  Ni  Ni66  1  0.50000000  0.30526446  0.93468612  1.0
  Ni  Ni67  1  0.50000000  0.63859779  0.93468612  1.0
  Ni  Ni68  1  0.50000000  0.97193113  0.93468613  1.0
  Ni  Ni69  1  0.83333333  0.30526446  0.93468613  1.0
  Ni  Ni70  1  0.83333333  0.63859779  0.93468612  1.0
  Ni  Ni71  1  0.83333333  0.97193113  0.93468612  1.0
  Ni  Ni72  1  0.08333333  0.06631862  0.81631862  1.0
  Ni  Ni73  1  0.08333333  0.39965196  0.81631862  1.0
  Ni  Ni74  1  0.08333333  0.73298529  0.81631862  1.0
  Ni  Ni75  1  0.41666667  0.06631862  0.81631862  1.0
  Ni  Ni76  1  0.41666667  0.39965196  0.81631862  1.0
  Ni  Ni77  1  0.41666667  0.73298529  0.81631862  1.0
  Ni  Ni78  1  0.75000000  0.06631862  0.81631862  1.0
  Ni  Ni79  1  0.75000000  0.39965196  0.81631862  1.0
  Ni  Ni80  1  0.75000000  0.73298529  0.81631862  1.0
  Ni  Ni81  1  0.25000000  0.02465196  0.94131862  1.0
  Ni  Ni82  1  0.25000000  0.35798529  0.94131862  1.0
  Ni  Ni83  1  0.25000000  0.69131862  0.94131862  1.0
  Ni  Ni84  1  0.58333333  0.02465196  0.94131862  1.0
  Ni  Ni85  1  0.58333333  0.35798529  0.94131862  1.0
  Ni  Ni86  1  0.58333333  0.69131862  0.94131862  1.0
  Ni  Ni87  1  0.91666667  0.02465196  0.94131862  1.0
  Ni  Ni88  1  0.91666667  0.35798529  0.94131862  1.0
  Ni  Ni89  1  0.91666667  0.69131862  0.94131862  1.0
  Ni  Ni90  1  0.08352433  0.11599438  0.99618138  1.0
  Ni  Ni91  1  0.08352433  0.44932771  0.99618138  1.0
  Ni  Ni92  1  0.08352433  0.78266104  0.99618137  1.0
  Ni  Ni93  1  0.41685767  0.11599438  0.99618137  1.0
  Ni  Ni94  1  0.41685767  0.44932771  0.99618137  1.0
  Ni  Ni95  1  0.41685767  0.78266104  0.99618138  1.0
  Ni  Ni96  1  0.75019100  0.11599438  0.99618138  1.0
  Ni  Ni97  1  0.75019100  0.44932771  0.99618137  1.0
  Ni  Ni98  1  0.75019100  0.78266104  0.99618137  1.0
  Ni  Ni99  1  0.25019100  0.15766104  0.87118137  1.0
  Ni  Ni100  1  0.25019100  0.49099438  0.87118137  1.0
  Ni  Ni101  1  0.25019100  0.82432771  0.87118137  1.0
  Ni  Ni102  1  0.58352433  0.15766104  0.87118137  1.0
  Ni  Ni103  1  0.58352433  0.49099438  0.87118137  1.0
  Ni  Ni104  1  0.58352433  0.82432771  0.87118137  1.0
  Ni  Ni105  1  0.91685767  0.15766104  0.87118137  1.0
  Ni  Ni106  1  0.91685767  0.49099438  0.87118137  1.0
  Ni  Ni107  1  0.91685767  0.82432771  0.87118137  1.0
  Ni  Ni108  1  0.00000000  0.25381862  0.75381862  1.0
  Ni  Ni109  1  0.00000000  0.58715196  0.75381863  1.0
  Ni  Ni110  1  0.00000000  0.92048529  0.75381862  1.0
  Ni  Ni111  1  0.33333333  0.25381862  0.75381862  1.0
  Ni  Ni112  1  0.33333333  0.58715196  0.75381862  1.0
  Ni  Ni113  1  0.33333333  0.92048529  0.75381862  1.0
  Ni  Ni114  1  0.66666667  0.25381862  0.75381862  1.0
  Ni  Ni115  1  0.66666667  0.58715196  0.75381862  1.0
  Ni  Ni116  1  0.66666667  0.92048529  0.75381862  1.0
  Ni  Ni117  1  0.16666667  0.21215196  0.87881862  1.0
  Ni  Ni118  1  0.16666667  0.54548529  0.87881862  1.0
  Ni  Ni119  1  0.16666667  0.87881862  0.87881862  1.0
  Ni  Ni120  1  0.50000000  0.21215196  0.87881862  1.0
  Ni  Ni121  1  0.50000000  0.54548529  0.87881862  1.0
  Ni  Ni122  1  0.50000000  0.87881862  0.87881862  1.0
  Ni  Ni123  1  0.83333333  0.21215196  0.87881862  1.0
  Ni  Ni124  1  0.83333333  0.54548529  0.87881862  1.0
  Ni  Ni125  1  0.83333333  0.87881862  0.87881862  1.0
  Ni  Ni126  1  0.24980900  0.30830954  0.76145587  1.0
  Ni  Ni127  1  0.24980900  0.64164288  0.76145588  1.0
  Ni  Ni128  1  0.24980900  0.97497621  0.76145587  1.0
  Ni  Ni129  1  0.58314233  0.30830954  0.76145587  1.0
  Ni  Ni130  1  0.58314233  0.64164288  0.76145587  1.0
  Ni  Ni131  1  0.58314233  0.97497621  0.76145588  1.0
  Ni  Ni132  1  0.91647567  0.30830954  0.76145587  1.0
  Ni  Ni133  1  0.91647567  0.64164288  0.76145587  1.0
  Ni  Ni134  1  0.91647567  0.97497621  0.76145588  1.0
  Ni  Ni135  1  0.08314233  0.26664288  0.88645587  1.0
  Ni  Ni136  1  0.08314233  0.59997621  0.88645588  1.0
  Ni  Ni137  1  0.08314233  0.93330954  0.88645587  1.0
  Ni  Ni138  1  0.41647567  0.26664288  0.88645587  1.0
  Ni  Ni139  1  0.41647567  0.59997621  0.88645587  1.0
  Ni  Ni140  1  0.41647567  0.93330954  0.88645588  1.0
  Ni  Ni141  1  0.74980900  0.26664288  0.88645588  1.0
  Ni  Ni142  1  0.74980900  0.59997621  0.88645587  1.0
  Ni  Ni143  1  0.74980900  0.93330954  0.88645587  1.0
  Ni  Ni144  1  0.33333333  0.31896946  0.89290912  1.0
  Ni  Ni145  1  0.33333333  0.65230279  0.89290912  1.0
  Ni  Ni146  1  0.33333333  0.98563612  0.89290912  1.0
  Ni  Ni147  1  0.66666667  0.31896946  0.89290912  1.0
  Ni  Ni148  1  0.66666667  0.65230279  0.89290912  1.0
  Ni  Ni149  1  0.66666667  0.98563612  0.89290912  1.0
  Ni  Ni150  1  1.00000000  0.31896946  0.89290912  1.0
  Ni  Ni151  1  0.00000000  0.65230279  0.89290912  1.0
  Ni  Ni152  1  1.00000000  0.98563612  0.89290912  1.0
  Ni  Ni153  1  0.16666667  0.02730279  0.76790912  1.0
  Ni  Ni154  1  0.16666667  0.36063612  0.76790912  1.0
  Ni  Ni155  1  0.16666667  0.69396946  0.76790912  1.0
  Ni  Ni156  1  0.50000000  0.02730279  0.76790912  1.0
  Ni  Ni157  1  0.50000000  0.36063612  0.76790912  1.0
  Ni  Ni158  1  0.50000000  0.69396946  0.76790912  1.0
  Ni  Ni159  1  0.83333333  0.02730279  0.76790912  1.0
  Ni  Ni160  1  0.83333333  0.36063612  0.76790912  1.0
  Ni  Ni161  1  0.83333333  0.69396946  0.76790912  1.0
  Ni  Ni162  1  0.00000000  0.13687546  0.93353812  1.0
  Ni  Ni163  1  0.00000000  0.47020879  0.93353812  1.0
  Ni  Ni164  1  0.00000000  0.80354212  0.93353812  1.0
  Ni  Ni165  1  0.33333333  0.13687546  0.93353812  1.0
  Ni  Ni166  1  0.33333333  0.47020879  0.93353812  1.0
  Ni  Ni167  1  0.33333333  0.80354212  0.93353812  1.0
  Ni  Ni168  1  0.66666667  0.13687546  0.93353812  1.0
  Ni  Ni169  1  0.66666667  0.47020879  0.93353812  1.0
  Ni  Ni170  1  0.66666667  0.80354212  0.93353812  1.0
  Ni  Ni171  1  0.16666667  0.17854213  0.80853812  1.0
  Ni  Ni172  1  0.16666667  0.51187546  0.80853812  1.0
  Ni  Ni173  1  0.16666667  0.84520879  0.80853812  1.0
  Ni  Ni174  1  0.50000000  0.17854213  0.80853812  1.0
  Ni  Ni175  1  0.50000000  0.51187546  0.80853812  1.0
  Ni  Ni176  1  0.50000000  0.84520879  0.80853813  1.0
  Ni  Ni177  1  0.83333333  0.17854213  0.80853812  1.0
  Ni  Ni178  1  0.83333333  0.51187546  0.80853812  1.0
  Ni  Ni179  1  0.83333333  0.84520879  0.80853812  1.0
  Ni  Ni180  1  0.08352433  0.30830954  0.76145587  1.0
  Ni  Ni181  1  0.08352433  0.64164288  0.76145588  1.0
  Ni  Ni182  1  0.08352433  0.97497621  0.76145587  1.0
  Ni  Ni183  1  0.41685767  0.30830954  0.76145587  1.0
  Ni  Ni184  1  0.41685767  0.64164288  0.76145587  1.0
  Ni  Ni185  1  0.41685767  0.97497621  0.76145588  1.0
  Ni  Ni186  1  0.75019100  0.30830954  0.76145588  1.0
  Ni  Ni187  1  0.75019100  0.64164288  0.76145587  1.0
  Ni  Ni188  1  0.75019100  0.97497621  0.76145588  1.0
  Ni  Ni189  1  0.25019100  0.26664288  0.88645588  1.0
  Ni  Ni190  1  0.25019100  0.59997621  0.88645588  1.0
  Ni  Ni191  1  0.25019100  0.93330954  0.88645588  1.0
  Ni  Ni192  1  0.58352433  0.26664288  0.88645588  1.0
  Ni  Ni193  1  0.58352433  0.59997621  0.88645588  1.0
  Ni  Ni194  1  0.58352433  0.93330954  0.88645588  1.0
  Ni  Ni195  1  0.91685767  0.26664288  0.88645588  1.0
  Ni  Ni196  1  0.91685767  0.59997621  0.88645588  1.0
  Ni  Ni197  1  0.91685767  0.93330954  0.88645588  1.0
  Ni  Ni198  1  0.00000000  0.04548529  0.87881862  1.0
  Ni  Ni199  1  0.00000000  0.37881863  0.87881863  1.0
  Ni  Ni200  1  0.00000000  0.71215196  0.87881862  1.0
  Ni  Ni201  1  0.33333333  0.04548529  0.87881862  1.0
  Ni  Ni202  1  0.33333333  0.37881863  0.87881862  1.0
  Ni  Ni203  1  0.33333333  0.71215196  0.87881863  1.0
  Ni  Ni204  1  0.66666667  0.04548529  0.87881863  1.0
  Ni  Ni205  1  0.66666667  0.37881863  0.87881862  1.0
  Ni  Ni206  1  0.66666667  0.71215196  0.87881862  1.0
  Ni  Ni207  1  0.16666667  0.08715196  0.75381862  1.0
  Ni  Ni208  1  0.16666667  0.42048529  0.75381862  1.0
  Ni  Ni209  1  0.16666667  0.75381862  0.75381862  1.0
  Ni  Ni210  1  0.50000000  0.08715196  0.75381862  1.0
  Ni  Ni211  1  0.50000000  0.42048529  0.75381862  1.0
  Ni  Ni212  1  0.50000000  0.75381862  0.75381862  1.0
  Ni  Ni213  1  0.83333333  0.08715196  0.75381862  1.0
  Ni  Ni214  1  0.83333333  0.42048529  0.75381862  1.0
  Ni  Ni215  1  0.83333333  0.75381862  0.75381862  1.0
  Ni  Ni216  1  0.25000000  0.06631862  0.81631862  1.0
  Ni  Ni217  1  0.25000000  0.39965196  0.81631862  1.0
  Ni  Ni218  1  0.25000000  0.73298529  0.81631862  1.0
  Ni  Ni219  1  0.58333333  0.06631862  0.81631862  1.0
  Ni  Ni220  1  0.58333333  0.39965196  0.81631862  1.0
  Ni  Ni221  1  0.58333333  0.73298529  0.81631862  1.0
  Ni  Ni222  1  0.91666667  0.06631862  0.81631862  1.0
  Ni  Ni223  1  0.91666667  0.39965196  0.81631862  1.0
  Ni  Ni224  1  0.91666667  0.73298529  0.81631862  1.0
  Ni  Ni225  1  0.08333333  0.02465196  0.94131862  1.0
  Ni  Ni226  1  0.08333333  0.35798529  0.94131862  1.0
  Ni  Ni227  1  0.08333333  0.69131862  0.94131862  1.0
  Ni  Ni228  1  0.41666667  0.02465196  0.94131862  1.0
  Ni  Ni229  1  0.41666667  0.35798529  0.94131862  1.0
  Ni  Ni230  1  0.41666667  0.69131862  0.94131862  1.0
  Ni  Ni231  1  0.75000000  0.02465196  0.94131862  1.0
  Ni  Ni232  1  0.75000000  0.35798529  0.94131862  1.0
  Ni  Ni233  1  0.75000000  0.69131862  0.94131862  1.0
  Ni  Ni234  1  0.24980900  0.11599438  0.99618137  1.0
  Ni  Ni235  1  0.24980900  0.44932771  0.99618138  1.0
  Ni  Ni236  1  0.24980900  0.78266104  0.99618137  1.0
  Ni  Ni237  1  0.58314233  0.11599438  0.99618137  1.0
  Ni  Ni238  1  0.58314233  0.44932771  0.99618137  1.0
  Ni  Ni239  1  0.58314233  0.78266104  0.99618138  1.0
  Ni  Ni240  1  0.91647567  0.11599438  0.99618138  1.0
  Ni  Ni241  1  0.91647567  0.44932771  0.99618137  1.0
  Ni  Ni242  1  0.91647567  0.78266104  0.99618137  1.0
  Ni  Ni243  1  0.08314233  0.15766104  0.87118137  1.0
  Ni  Ni244  1  0.08314233  0.49099437  0.87118137  1.0
  Ni  Ni245  1  0.08314233  0.82432771  0.87118137  1.0
  Ni  Ni246  1  0.41647567  0.15766104  0.87118137  1.0
  Ni  Ni247  1  0.41647567  0.49099437  0.87118137  1.0
  Ni  Ni248  1  0.41647567  0.82432771  0.87118137  1.0
  Ni  Ni249  1  0.74980900  0.15766104  0.87118137  1.0
  Ni  Ni250  1  0.74980900  0.49099437  0.87118137  1.0
  Ni  Ni251  1  0.74980900  0.82432771  0.87118137  1.0
  Ni  Ni252  1  0.33333333  0.18866779  0.61472813  1.0
  Ni  Ni253  1  0.33333333  0.52200113  0.61472813  1.0
  Ni  Ni254  1  0.33333333  0.85533446  0.61472813  1.0
  Ni  Ni255  1  0.66666667  0.18866779  0.61472813  1.0
  Ni  Ni256  1  0.66666667  0.52200113  0.61472813  1.0
  Ni  Ni257  1  0.66666667  0.85533446  0.61472813  1.0
  Ni  Ni258  1  1.00000000  0.18866779  0.61472813  1.0
  Ni  Ni259  1  0.00000000  0.52200113  0.61472813  1.0
  Ni  Ni260  1  1.00000000  0.85533446  0.61472813  1.0
  Ni  Ni261  1  0.16666667  0.14700112  0.73972812  1.0
  Ni  Ni262  1  0.16666667  0.48033446  0.73972812  1.0
  Ni  Ni263  1  0.16666667  0.81366779  0.73972812  1.0
  Ni  Ni264  1  0.50000000  0.14700112  0.73972812  1.0
  Ni  Ni265  1  0.50000000  0.48033446  0.73972812  1.0
  Ni  Ni266  1  0.50000000  0.81366779  0.73972812  1.0
  Ni  Ni267  1  0.83333333  0.14700112  0.73972812  1.0
  Ni  Ni268  1  0.83333333  0.48033446  0.73972812  1.0
  Ni  Ni269  1  0.83333333  0.81366779  0.73972812  1.0
  Ni  Ni270  1  0.33333333  0.16070612  0.69795112  1.0
  Ni  Ni271  1  0.33333333  0.49403946  0.69795112  1.0
  Ni  Ni272  1  0.33333333  0.82737279  0.69795112  1.0
  Ni  Ni273  1  0.66666667  0.16070612  0.69795112  1.0
  Ni  Ni274  1  0.66666667  0.49403946  0.69795112  1.0
  Ni  Ni275  1  0.66666667  0.82737279  0.69795112  1.0
  Ni  Ni276  1  0.00000000  0.16070612  0.69795112  1.0
  Ni  Ni277  1  0.00000000  0.49403946  0.69795112  1.0
  Ni  Ni278  1  1.00000000  0.82737279  0.69795112  1.0
  Ni  Ni279  1  0.16666667  0.20237279  0.57295112  1.0
  Ni  Ni280  1  0.16666667  0.53570612  0.57295112  1.0
  Ni  Ni281  1  0.16666667  0.86903946  0.57295112  1.0
  Ni  Ni282  1  0.50000000  0.20237279  0.57295112  1.0
  Ni  Ni283  1  0.50000000  0.53570612  0.57295112  1.0
  Ni  Ni284  1  0.50000000  0.86903946  0.57295113  1.0
  Ni  Ni285  1  0.83333333  0.20237279  0.57295112  1.0
  Ni  Ni286  1  0.83333333  0.53570612  0.57295112  1.0
  Ni  Ni287  1  0.83333333  0.86903946  0.57295112  1.0
  Ni  Ni288  1  0.00000000  0.03742846  0.57409913  1.0
  Ni  Ni289  1  0.00000000  0.37076179  0.57409913  1.0
  Ni  Ni290  1  0.00000000  0.70409513  0.57409912  1.0
  Ni  Ni291  1  0.33333333  0.03742846  0.57409912  1.0
  Ni  Ni292  1  0.33333333  0.37076179  0.57409913  1.0
  Ni  Ni293  1  0.33333333  0.70409513  0.57409913  1.0
  Ni  Ni294  1  0.66666667  0.03742846  0.57409913  1.0
  Ni  Ni295  1  0.66666667  0.37076179  0.57409912  1.0
  Ni  Ni296  1  0.66666667  0.70409513  0.57409913  1.0
  Ni  Ni297  1  0.16666667  0.32909513  0.69909913  1.0
  Ni  Ni298  1  0.16666667  0.66242846  0.69909913  1.0
  Ni  Ni299  1  0.16666667  0.99576179  0.69909912  1.0
  Ni  Ni300  1  0.50000000  0.32909513  0.69909912  1.0
  Ni  Ni301  1  0.50000000  0.66242846  0.69909913  1.0
  Ni  Ni302  1  0.50000000  0.99576179  0.69909913  1.0
  Ni  Ni303  1  0.83333333  0.32909513  0.69909913  1.0
  Ni  Ni304  1  0.83333333  0.66242846  0.69909912  1.0
  Ni  Ni305  1  0.83333333  0.99576179  0.69909913  1.0
  Ni  Ni306  1  0.00000000  0.09693113  0.55968612  1.0
  Ni  Ni307  1  0.00000000  0.43026446  0.55968612  1.0
  Ni  Ni308  1  0.00000000  0.76359779  0.55968612  1.0
  Ni  Ni309  1  0.33333333  0.09693113  0.55968612  1.0
  Ni  Ni310  1  0.33333333  0.43026446  0.55968612  1.0
  Ni  Ni311  1  0.33333333  0.76359779  0.55968612  1.0
  Ni  Ni312  1  0.66666667  0.09693113  0.55968612  1.0
  Ni  Ni313  1  0.66666667  0.43026446  0.55968612  1.0
  Ni  Ni314  1  0.66666667  0.76359779  0.55968612  1.0
  Ni  Ni315  1  0.16666667  0.05526446  0.68468612  1.0
  Ni  Ni316  1  0.16666667  0.38859779  0.68468613  1.0
  Ni  Ni317  1  0.16666667  0.72193113  0.68468612  1.0
  Ni  Ni318  1  0.50000000  0.05526446  0.68468612  1.0
  Ni  Ni319  1  0.50000000  0.38859779  0.68468612  1.0
  Ni  Ni320  1  0.50000000  0.72193113  0.68468613  1.0
  Ni  Ni321  1  0.83333333  0.05526446  0.68468613  1.0
  Ni  Ni322  1  0.83333333  0.38859779  0.68468612  1.0
  Ni  Ni323  1  0.83333333  0.72193113  0.68468612  1.0
  Ni  Ni324  1  0.08333333  0.14965196  0.56631862  1.0
  Ni  Ni325  1  0.08333333  0.48298529  0.56631862  1.0
  Ni  Ni326  1  0.08333333  0.81631862  0.56631862  1.0
  Ni  Ni327  1  0.41666667  0.14965196  0.56631862  1.0
  Ni  Ni328  1  0.41666667  0.48298529  0.56631862  1.0
  Ni  Ni329  1  0.41666667  0.81631862  0.56631862  1.0
  Ni  Ni330  1  0.75000000  0.14965196  0.56631862  1.0
  Ni  Ni331  1  0.75000000  0.48298529  0.56631862  1.0
  Ni  Ni332  1  0.75000000  0.81631862  0.56631862  1.0
  Ni  Ni333  1  0.25000000  0.10798529  0.69131862  1.0
  Ni  Ni334  1  0.25000000  0.44131862  0.69131862  1.0
  Ni  Ni335  1  0.25000000  0.77465196  0.69131862  1.0
  Ni  Ni336  1  0.58333333  0.10798529  0.69131862  1.0
  Ni  Ni337  1  0.58333333  0.44131862  0.69131862  1.0
  Ni  Ni338  1  0.58333333  0.77465196  0.69131862  1.0
  Ni  Ni339  1  0.91666667  0.10798529  0.69131862  1.0
  Ni  Ni340  1  0.91666667  0.44131862  0.69131862  1.0
  Ni  Ni341  1  0.91666667  0.77465196  0.69131862  1.0
  Ni  Ni342  1  0.08352433  0.19932771  0.74618137  1.0
  Ni  Ni343  1  0.08352433  0.53266104  0.74618137  1.0
  Ni  Ni344  1  0.08352433  0.86599437  0.74618137  1.0
  Ni  Ni345  1  0.41685767  0.19932771  0.74618137  1.0
  Ni  Ni346  1  0.41685767  0.53266104  0.74618137  1.0
  Ni  Ni347  1  0.41685767  0.86599437  0.74618138  1.0
  Ni  Ni348  1  0.75019100  0.19932771  0.74618137  1.0
  Ni  Ni349  1  0.75019100  0.53266104  0.74618137  1.0
  Ni  Ni350  1  0.75019100  0.86599437  0.74618138  1.0
  Ni  Ni351  1  0.25019100  0.24099438  0.62118138  1.0
  Ni  Ni352  1  0.25019100  0.57432771  0.62118138  1.0
  Ni  Ni353  1  0.25019100  0.90766104  0.62118137  1.0
  Ni  Ni354  1  0.58352433  0.24099438  0.62118137  1.0
  Ni  Ni355  1  0.58352433  0.57432771  0.62118138  1.0
  Ni  Ni356  1  0.58352433  0.90766104  0.62118138  1.0
  Ni  Ni357  1  0.91685767  0.24099438  0.62118138  1.0
  Ni  Ni358  1  0.91685767  0.57432771  0.62118137  1.0
  Ni  Ni359  1  0.91685767  0.90766104  0.62118138  1.0
  Ni  Ni360  1  0.00000000  0.00381862  0.50381862  1.0
  Ni  Ni361  1  0.00000000  0.33715196  0.50381862  1.0
  Ni  Ni362  1  0.00000000  0.67048529  0.50381862  1.0
  Ni  Ni363  1  0.33333333  0.00381862  0.50381862  1.0
  Ni  Ni364  1  0.33333333  0.33715196  0.50381862  1.0
  Ni  Ni365  1  0.33333333  0.67048529  0.50381862  1.0
  Ni  Ni366  1  0.66666667  0.00381862  0.50381862  1.0
  Ni  Ni367  1  0.66666667  0.33715196  0.50381862  1.0
  Ni  Ni368  1  0.66666667  0.67048529  0.50381862  1.0
  Ni  Ni369  1  0.16666667  0.29548529  0.62881862  1.0
  Ni  Ni370  1  0.16666667  0.62881862  0.62881862  1.0
  Ni  Ni371  1  0.16666667  0.96215196  0.62881862  1.0
  Ni  Ni372  1  0.50000000  0.29548529  0.62881862  1.0
  Ni  Ni373  1  0.50000000  0.62881862  0.62881862  1.0
  Ni  Ni374  1  0.50000000  0.96215196  0.62881862  1.0
  Ni  Ni375  1  0.83333333  0.29548529  0.62881862  1.0
  Ni  Ni376  1  0.83333333  0.62881862  0.62881862  1.0
  Ni  Ni377  1  0.83333333  0.96215196  0.62881862  1.0
  Ni  Ni378  1  0.24980900  0.05830954  0.51145587  1.0
  Ni  Ni379  1  0.24980900  0.39164288  0.51145587  1.0
  Ni  Ni380  1  0.24980900  0.72497621  0.51145587  1.0
  Ni  Ni381  1  0.58314233  0.05830954  0.51145587  1.0
  Ni  Ni382  1  0.58314233  0.39164288  0.51145587  1.0
  Ni  Ni383  1  0.58314233  0.72497621  0.51145587  1.0
  Ni  Ni384  1  0.91647567  0.05830954  0.51145587  1.0
  Ni  Ni385  1  0.91647567  0.39164288  0.51145587  1.0
  Ni  Ni386  1  0.91647567  0.72497621  0.51145587  1.0
  Ni  Ni387  1  0.08314233  0.01664288  0.63645587  1.0
  Ni  Ni388  1  0.08314233  0.34997621  0.63645588  1.0
  Ni  Ni389  1  0.08314233  0.68330954  0.63645587  1.0
  Ni  Ni390  1  0.41647567  0.01664288  0.63645587  1.0
  Ni  Ni391  1  0.41647567  0.34997621  0.63645587  1.0
  Ni  Ni392  1  0.41647567  0.68330954  0.63645588  1.0
  Ni  Ni393  1  0.74980900  0.01664288  0.63645588  1.0
  Ni  Ni394  1  0.74980900  0.34997621  0.63645587  1.0
  Ni  Ni395  1  0.74980900  0.68330954  0.63645587  1.0
  Ni  Ni396  1  0.00000000  0.06896946  0.64290912  1.0
  Ni  Ni397  1  0.00000000  0.40230279  0.64290912  1.0
  Ni  Ni398  1  0.00000000  0.73563612  0.64290912  1.0
  Ni  Ni399  1  0.33333333  0.06896946  0.64290912  1.0
  Ni  Ni400  1  0.33333333  0.40230279  0.64290912  1.0
  Ni  Ni401  1  0.33333333  0.73563612  0.64290912  1.0
  Ni  Ni402  1  0.66666667  0.06896946  0.64290912  1.0
  Ni  Ni403  1  0.66666667  0.40230279  0.64290912  1.0
  Ni  Ni404  1  0.66666667  0.73563612  0.64290912  1.0
  Ni  Ni405  1  0.16666667  0.11063613  0.51790912  1.0
  Ni  Ni406  1  0.16666667  0.44396946  0.51790912  1.0
  Ni  Ni407  1  0.16666667  0.77730279  0.51790912  1.0
  Ni  Ni408  1  0.50000000  0.11063613  0.51790912  1.0
  Ni  Ni409  1  0.50000000  0.44396946  0.51790912  1.0
  Ni  Ni410  1  0.50000000  0.77730279  0.51790912  1.0
  Ni  Ni411  1  0.83333333  0.11063613  0.51790912  1.0
  Ni  Ni412  1  0.83333333  0.44396946  0.51790912  1.0
  Ni  Ni413  1  0.83333333  0.77730279  0.51790912  1.0
  Ni  Ni414  1  0.00000000  0.22020879  0.68353812  1.0
  Ni  Ni415  1  0.00000000  0.55354212  0.68353812  1.0
  Ni  Ni416  1  0.00000000  0.88687546  0.68353812  1.0
  Ni  Ni417  1  0.33333333  0.22020879  0.68353812  1.0
  Ni  Ni418  1  0.33333333  0.55354212  0.68353812  1.0
  Ni  Ni419  1  0.33333333  0.88687546  0.68353812  1.0
  Ni  Ni420  1  0.66666667  0.22020879  0.68353812  1.0
  Ni  Ni421  1  0.66666667  0.55354212  0.68353812  1.0
  Ni  Ni422  1  0.66666667  0.88687546  0.68353812  1.0
  Ni  Ni423  1  0.16666667  0.26187546  0.55853812  1.0
  Ni  Ni424  1  0.16666667  0.59520879  0.55853812  1.0
  Ni  Ni425  1  0.16666667  0.92854212  0.55853812  1.0
  Ni  Ni426  1  0.50000000  0.26187546  0.55853812  1.0
  Ni  Ni427  1  0.50000000  0.59520879  0.55853812  1.0
  Ni  Ni428  1  0.50000000  0.92854212  0.55853812  1.0
  Ni  Ni429  1  0.83333333  0.26187546  0.55853812  1.0
  Ni  Ni430  1  0.83333333  0.59520879  0.55853812  1.0
  Ni  Ni431  1  0.83333333  0.92854212  0.55853812  1.0
  Ni  Ni432  1  0.08352433  0.05830954  0.51145587  1.0
  Ni  Ni433  1  0.08352433  0.39164288  0.51145587  1.0
  Ni  Ni434  1  0.08352433  0.72497621  0.51145587  1.0
  Ni  Ni435  1  0.41685767  0.05830954  0.51145587  1.0
  Ni  Ni436  1  0.41685767  0.39164288  0.51145587  1.0
  Ni  Ni437  1  0.41685767  0.72497621  0.51145587  1.0
  Ni  Ni438  1  0.75019100  0.05830954  0.51145588  1.0
  Ni  Ni439  1  0.75019100  0.39164288  0.51145587  1.0
  Ni  Ni440  1  0.75019100  0.72497621  0.51145587  1.0
  Ni  Ni441  1  0.25019100  0.01664288  0.63645588  1.0
  Ni  Ni442  1  0.25019100  0.34997621  0.63645588  1.0
  Ni  Ni443  1  0.25019100  0.68330954  0.63645588  1.0
  Ni  Ni444  1  0.58352433  0.01664288  0.63645588  1.0
  Ni  Ni445  1  0.58352433  0.34997621  0.63645588  1.0
  Ni  Ni446  1  0.58352433  0.68330954  0.63645588  1.0
  Ni  Ni447  1  0.91685767  0.01664288  0.63645588  1.0
  Ni  Ni448  1  0.91685767  0.34997621  0.63645588  1.0
  Ni  Ni449  1  0.91685767  0.68330954  0.63645588  1.0
  Ni  Ni450  1  0.00000000  0.12881862  0.62881862  1.0
  Ni  Ni451  1  0.00000000  0.46215196  0.62881862  1.0
  Ni  Ni452  1  0.00000000  0.79548529  0.62881862  1.0
  Ni  Ni453  1  0.33333333  0.12881862  0.62881862  1.0
  Ni  Ni454  1  0.33333333  0.46215196  0.62881862  1.0
  Ni  Ni455  1  0.33333333  0.79548529  0.62881862  1.0
  Ni  Ni456  1  0.66666667  0.12881862  0.62881862  1.0
  Ni  Ni457  1  0.66666667  0.46215196  0.62881862  1.0
  Ni  Ni458  1  0.66666667  0.79548529  0.62881862  1.0
  Ni  Ni459  1  0.16666667  0.17048529  0.50381862  1.0
  Ni  Ni460  1  0.16666667  0.50381862  0.50381862  1.0
  Ni  Ni461  1  0.16666667  0.83715196  0.50381862  1.0
  Ni  Ni462  1  0.50000000  0.17048529  0.50381862  1.0
  Ni  Ni463  1  0.50000000  0.50381862  0.50381862  1.0
  Ni  Ni464  1  0.50000000  0.83715196  0.50381862  1.0
  Ni  Ni465  1  0.83333333  0.17048529  0.50381862  1.0
  Ni  Ni466  1  0.83333333  0.50381862  0.50381862  1.0
  Ni  Ni467  1  0.83333333  0.83715196  0.50381862  1.0
  Ni  Ni468  1  0.25000000  0.14965196  0.56631862  1.0
  Ni  Ni469  1  0.25000000  0.48298529  0.56631862  1.0
  Ni  Ni470  1  0.25000000  0.81631862  0.56631862  1.0
  Ni  Ni471  1  0.58333333  0.14965196  0.56631862  1.0
  Ni  Ni472  1  0.58333333  0.48298529  0.56631862  1.0
  Ni  Ni473  1  0.58333333  0.81631862  0.56631862  1.0
  Ni  Ni474  1  0.91666667  0.14965196  0.56631862  1.0
  Ni  Ni475  1  0.91666667  0.48298529  0.56631862  1.0
  Ni  Ni476  1  0.91666667  0.81631862  0.56631862  1.0
  Ni  Ni477  1  0.08333333  0.10798529  0.69131862  1.0
  Ni  Ni478  1  0.08333333  0.44131862  0.69131862  1.0
  Ni  Ni479  1  0.08333333  0.77465196  0.69131862  1.0
  Ni  Ni480  1  0.41666667  0.10798529  0.69131862  1.0
  Ni  Ni481  1  0.41666667  0.44131862  0.69131862  1.0
  Ni  Ni482  1  0.41666667  0.77465196  0.69131862  1.0
  Ni  Ni483  1  0.75000000  0.10798529  0.69131862  1.0
  Ni  Ni484  1  0.75000000  0.44131862  0.69131862  1.0
  Ni  Ni485  1  0.75000000  0.77465196  0.69131862  1.0
  Ni  Ni486  1  0.24980900  0.19932771  0.74618138  1.0
  Ni  Ni487  1  0.24980900  0.53266104  0.74618138  1.0
  Ni  Ni488  1  0.24980900  0.86599437  0.74618138  1.0
  Ni  Ni489  1  0.58314233  0.19932771  0.74618137  1.0
  Ni  Ni490  1  0.58314233  0.53266104  0.74618138  1.0
  Ni  Ni491  1  0.58314233  0.86599437  0.74618138  1.0
  Ni  Ni492  1  0.91647567  0.19932771  0.74618138  1.0
  Ni  Ni493  1  0.91647567  0.53266104  0.74618137  1.0
  Ni  Ni494  1  0.91647567  0.86599437  0.74618138  1.0
  Ni  Ni495  1  0.08314233  0.24099438  0.62118138  1.0
  Ni  Ni496  1  0.08314233  0.57432771  0.62118138  1.0
  Ni  Ni497  1  0.08314233  0.90766104  0.62118138  1.0
  Ni  Ni498  1  0.41647567  0.24099438  0.62118138  1.0
  Ni  Ni499  1  0.41647567  0.57432771  0.62118138  1.0
  Ni  Ni500  1  0.41647567  0.90766104  0.62118138  1.0
  Ni  Ni501  1  0.74980900  0.24099438  0.62118138  1.0
  Ni  Ni502  1  0.74980900  0.57432771  0.62118138  1.0
  Ni  Ni503  1  0.74980900  0.90766104  0.62118138  1.0
  Y  Y504  1  0.00000000  0.29512196  0.97860062  1.0
  Y  Y505  1  0.00000000  0.62845529  0.97860063  1.0
  Y  Y506  1  0.00000000  0.96178862  0.97860063  1.0
  Y  Y507  1  0.33333333  0.29512196  0.97860062  1.0
  Y  Y508  1  0.33333333  0.62845529  0.97860063  1.0
  Y  Y509  1  0.33333333  0.96178862  0.97860063  1.0
  Y  Y510  1  0.66666667  0.29512196  0.97860062  1.0
  Y  Y511  1  0.66666667  0.62845529  0.97860063  1.0
  Y  Y512  1  0.66666667  0.96178862  0.97860063  1.0
  Y  Y513  1  0.16666667  0.00345529  0.85360062  1.0
  Y  Y514  1  0.16666667  0.33678862  0.85360062  1.0
  Y  Y515  1  0.16666667  0.67012196  0.85360062  1.0
  Y  Y516  1  0.50000000  0.00345529  0.85360062  1.0
  Y  Y517  1  0.50000000  0.33678862  0.85360062  1.0
  Y  Y518  1  0.50000000  0.67012196  0.85360062  1.0
  Y  Y519  1  0.83333333  0.00345529  0.85360062  1.0
  Y  Y520  1  0.83333333  0.33678862  0.85360062  1.0
  Y  Y521  1  0.83333333  0.67012196  0.85360062  1.0
  Y  Y522  1  0.00000000  0.20978696  0.82739962  1.0
  Y  Y523  1  0.00000000  0.54312029  0.82739962  1.0
  Y  Y524  1  0.00000000  0.87645363  0.82739962  1.0
  Y  Y525  1  0.33333333  0.20978696  0.82739962  1.0
  Y  Y526  1  0.33333333  0.54312029  0.82739962  1.0
  Y  Y527  1  0.33333333  0.87645363  0.82739962  1.0
  Y  Y528  1  0.66666667  0.20978696  0.82739962  1.0
  Y  Y529  1  0.66666667  0.54312029  0.82739962  1.0
  Y  Y530  1  0.66666667  0.87645363  0.82739962  1.0
  Y  Y531  1  0.16666667  0.16812029  0.95239962  1.0
  Y  Y532  1  0.16666667  0.50145362  0.95239962  1.0
  Y  Y533  1  0.16666667  0.83478696  0.95239962  1.0
  Y  Y534  1  0.50000000  0.16812029  0.95239962  1.0
  Y  Y535  1  0.50000000  0.50145362  0.95239962  1.0
  Y  Y536  1  0.50000000  0.83478696  0.95239962  1.0
  Y  Y537  1  0.83333333  0.16812029  0.95239962  1.0
  Y  Y538  1  0.83333333  0.50145362  0.95239962  1.0
  Y  Y539  1  0.83333333  0.83478696  0.95239962  1.0
  Y  Y540  1  0.00000000  0.12918196  0.77903663  1.0
  Y  Y541  1  0.00000000  0.46251529  0.77903663  1.0
  Y  Y542  1  0.00000000  0.79584863  0.77903663  1.0
  Y  Y543  1  0.33333333  0.12918196  0.77903663  1.0
  Y  Y544  1  0.33333333  0.46251529  0.77903663  1.0
  Y  Y545  1  0.33333333  0.79584863  0.77903663  1.0
  Y  Y546  1  0.66666667  0.12918196  0.77903663  1.0
  Y  Y547  1  0.66666667  0.46251529  0.77903662  1.0
  Y  Y548  1  0.66666667  0.79584863  0.77903663  1.0
  Y  Y549  1  0.16666667  0.08751529  0.90403663  1.0
  Y  Y550  1  0.16666667  0.42084862  0.90403663  1.0
  Y  Y551  1  0.16666667  0.75418196  0.90403662  1.0
  Y  Y552  1  0.50000000  0.08751529  0.90403662  1.0
  Y  Y553  1  0.50000000  0.42084862  0.90403662  1.0
  Y  Y554  1  0.50000000  0.75418196  0.90403663  1.0
  Y  Y555  1  0.83333333  0.08751529  0.90403663  1.0
  Y  Y556  1  0.83333333  0.42084862  0.90403662  1.0
  Y  Y557  1  0.83333333  0.75418196  0.90403662  1.0
  Y  Y558  1  0.00000000  0.21451696  0.93023762  1.0
  Y  Y559  1  0.00000000  0.54785029  0.93023763  1.0
  Y  Y560  1  0.00000000  0.88118363  0.93023762  1.0
  Y  Y561  1  0.33333333  0.21451696  0.93023762  1.0
  Y  Y562  1  0.33333333  0.54785029  0.93023762  1.0
  Y  Y563  1  0.33333333  0.88118363  0.93023763  1.0
  Y  Y564  1  0.66666667  0.21451696  0.93023763  1.0
  Y  Y565  1  0.66666667  0.54785029  0.93023762  1.0
  Y  Y566  1  0.66666667  0.88118363  0.93023762  1.0
  Y  Y567  1  0.16666667  0.25618363  0.80523762  1.0
  Y  Y568  1  0.16666667  0.58951696  0.80523762  1.0
  Y  Y569  1  0.16666667  0.92285029  0.80523762  1.0
  Y  Y570  1  0.50000000  0.25618363  0.80523762  1.0
  Y  Y571  1  0.50000000  0.58951696  0.80523762  1.0
  Y  Y572  1  0.50000000  0.92285029  0.80523762  1.0
  Y  Y573  1  0.83333333  0.25618363  0.80523762  1.0
  Y  Y574  1  0.83333333  0.58951696  0.80523762  1.0
  Y  Y575  1  0.83333333  0.92285029  0.80523762  1.0
  Y  Y576  1  0.00000000  0.04512196  0.72860062  1.0
  Y  Y577  1  0.00000000  0.37845529  0.72860063  1.0
  Y  Y578  1  0.00000000  0.71178862  0.72860062  1.0
  Y  Y579  1  0.33333333  0.04512196  0.72860062  1.0
  Y  Y580  1  0.33333333  0.37845529  0.72860062  1.0
  Y  Y581  1  0.33333333  0.71178862  0.72860062  1.0
  Y  Y582  1  0.66666667  0.04512196  0.72860062  1.0
  Y  Y583  1  0.66666667  0.37845529  0.72860062  1.0
  Y  Y584  1  0.66666667  0.71178862  0.72860062  1.0
  Y  Y585  1  0.16666667  0.08678862  0.60360062  1.0
  Y  Y586  1  0.16666667  0.42012196  0.60360063  1.0
  Y  Y587  1  0.16666667  0.75345529  0.60360063  1.0
  Y  Y588  1  0.50000000  0.08678862  0.60360062  1.0
  Y  Y589  1  0.50000000  0.42012196  0.60360063  1.0
  Y  Y590  1  0.50000000  0.75345529  0.60360063  1.0
  Y  Y591  1  0.83333333  0.08678862  0.60360062  1.0
  Y  Y592  1  0.83333333  0.42012196  0.60360063  1.0
  Y  Y593  1  0.83333333  0.75345529  0.60360063  1.0
  Y  Y594  1  0.00000000  0.29312029  0.57739962  1.0
  Y  Y595  1  0.00000000  0.62645363  0.57739962  1.0
  Y  Y596  1  0.00000000  0.95978696  0.57739962  1.0
  Y  Y597  1  0.33333333  0.29312029  0.57739962  1.0
  Y  Y598  1  0.33333333  0.62645363  0.57739962  1.0
  Y  Y599  1  0.33333333  0.95978696  0.57739962  1.0
  Y  Y600  1  0.66666667  0.29312029  0.57739962  1.0
  Y  Y601  1  0.66666667  0.62645363  0.57739962  1.0
  Y  Y602  1  0.66666667  0.95978696  0.57739962  1.0
  Y  Y603  1  0.16666667  0.25145363  0.70239962  1.0
  Y  Y604  1  0.16666667  0.58478696  0.70239962  1.0
  Y  Y605  1  0.16666667  0.91812029  0.70239962  1.0
  Y  Y606  1  0.50000000  0.25145363  0.70239962  1.0
  Y  Y607  1  0.50000000  0.58478696  0.70239962  1.0
  Y  Y608  1  0.50000000  0.91812029  0.70239962  1.0
  Y  Y609  1  0.83333333  0.25145363  0.70239962  1.0
  Y  Y610  1  0.83333333  0.58478696  0.70239962  1.0
  Y  Y611  1  0.83333333  0.91812029  0.70239962  1.0
  Y  Y612  1  0.00000000  0.21251529  0.52903662  1.0
  Y  Y613  1  0.00000000  0.54584862  0.52903662  1.0
  Y  Y614  1  0.00000000  0.87918196  0.52903662  1.0
  Y  Y615  1  0.33333333  0.21251529  0.52903662  1.0
  Y  Y616  1  0.33333333  0.54584862  0.52903662  1.0
  Y  Y617  1  0.33333333  0.87918196  0.52903662  1.0
  Y  Y618  1  0.66666667  0.21251529  0.52903662  1.0
  Y  Y619  1  0.66666667  0.54584862  0.52903662  1.0
  Y  Y620  1  0.66666667  0.87918196  0.52903662  1.0
  Y  Y621  1  0.16666667  0.17084863  0.65403662  1.0
  Y  Y622  1  0.16666667  0.50418196  0.65403662  1.0
  Y  Y623  1  0.16666667  0.83751529  0.65403662  1.0
  Y  Y624  1  0.50000000  0.17084863  0.65403662  1.0
  Y  Y625  1  0.50000000  0.50418196  0.65403662  1.0
  Y  Y626  1  0.50000000  0.83751529  0.65403662  1.0
  Y  Y627  1  0.83333333  0.17084863  0.65403662  1.0
  Y  Y628  1  0.83333333  0.50418196  0.65403662  1.0
  Y  Y629  1  0.83333333  0.83751529  0.65403662  1.0
  Y  Y630  1  0.00000000  0.29785029  0.68023762  1.0
  Y  Y631  1  0.00000000  0.63118363  0.68023763  1.0
  Y  Y632  1  0.00000000  0.96451696  0.68023762  1.0
  Y  Y633  1  0.33333333  0.29785029  0.68023762  1.0
  Y  Y634  1  0.33333333  0.63118363  0.68023763  1.0
  Y  Y635  1  0.33333333  0.96451696  0.68023763  1.0
  Y  Y636  1  0.66666667  0.29785029  0.68023763  1.0
  Y  Y637  1  0.66666667  0.63118363  0.68023762  1.0
  Y  Y638  1  0.66666667  0.96451696  0.68023763  1.0
  Y  Y639  1  0.16666667  0.00618363  0.55523762  1.0
  Y  Y640  1  0.16666667  0.33951696  0.55523763  1.0
  Y  Y641  1  0.16666667  0.67285029  0.55523762  1.0
  Y  Y642  1  0.50000000  0.00618363  0.55523762  1.0
  Y  Y643  1  0.50000000  0.33951696  0.55523762  1.0
  Y  Y644  1  0.50000000  0.67285029  0.55523763  1.0
  Y  Y645  1  0.83333333  0.00618363  0.55523763  1.0
  Y  Y646  1  0.83333333  0.33951696  0.55523762  1.0
  Y  Y647  1  0.83333333  0.67285029  0.55523762  1.0
