# generated using pymatgen
data_Y2Ni7
_symmetry_space_group_name_H-M   'P 1'
_cell_length_a   14.81365210
_cell_length_b   42.61151049
_cell_length_c   61.84326625
_cell_angle_alpha   42.94499747
_cell_angle_beta   101.51431996
_cell_angle_gamma   79.98987590
_symmetry_Int_Tables_number   1
_chemical_formula_structural   Y2Ni7
_chemical_formula_sum   'Y144 Ni504'
_cell_volume   22873.00280472
_cell_formula_units_Z   72
loop_
 _symmetry_equiv_pos_site_id
 _symmetry_equiv_pos_as_xyz
  1  'x, y, z'
loop_
 _atom_site_type_symbol
 _atom_site_label
 _atom_site_symmetry_multiplicity
 _atom_site_fract_x
 _atom_site_fract_y
 _atom_site_fract_z
 _atom_site_occupancy
  Y  Y0  1  0.01681200  0.00840600  0.02282960  1.0
  Y  Y1  1  0.01681200  0.34173933  0.02282960  1.0
  Y  Y2  1  0.01681200  0.67507267  0.02282960  1.0
  Y  Y3  1  0.35014533  0.00840600  0.02282960  1.0
  Y  Y4  1  0.35014533  0.34173933  0.02282960  1.0
  Y  Y5  1  0.35014533  0.67507267  0.02282960  1.0
  Y  Y6  1  0.68347867  0.00840600  0.02282960  1.0
  Y  Y7  1  0.68347867  0.34173933  0.02282960  1.0
  Y  Y8  1  0.68347867  0.67507267  0.02282960  1.0
  Y  Y9  1  0.01681200  0.17507267  0.12282960  1.0
  Y  Y10  1  0.01681200  0.50840600  0.12282960  1.0
  Y  Y11  1  0.01681200  0.84173933  0.12282960  1.0
  Y  Y12  1  0.35014533  0.17507267  0.12282960  1.0
  Y  Y13  1  0.35014533  0.50840600  0.12282960  1.0
  Y  Y14  1  0.35014533  0.84173933  0.12282960  1.0
  Y  Y15  1  0.68347867  0.17507267  0.12282960  1.0
  Y  Y16  1  0.68347867  0.50840600  0.12282960  1.0
  Y  Y17  1  0.68347867  0.84173933  0.12282960  1.0
  Y  Y18  1  0.28427933  0.14213967  0.02403060  1.0
  Y  Y19  1  0.28427933  0.47547300  0.02403060  1.0
  Y  Y20  1  0.28427933  0.80880633  0.02403060  1.0
  Y  Y21  1  0.61761267  0.14213967  0.02403060  1.0
  Y  Y22  1  0.61761267  0.47547300  0.02403060  1.0
  Y  Y23  1  0.61761267  0.80880633  0.02403060  1.0
  Y  Y24  1  0.95094600  0.14213967  0.02403060  1.0
  Y  Y25  1  0.95094600  0.47547300  0.02403060  1.0
  Y  Y26  1  0.95094600  0.80880633  0.02403060  1.0
  Y  Y27  1  0.28427933  0.30880633  0.12403060  1.0
  Y  Y28  1  0.28427933  0.64213967  0.12403060  1.0
  Y  Y29  1  0.28427933  0.97547300  0.12403060  1.0
  Y  Y30  1  0.61761267  0.30880633  0.12403060  1.0
  Y  Y31  1  0.61761267  0.64213967  0.12403060  1.0
  Y  Y32  1  0.61761267  0.97547300  0.12403060  1.0
  Y  Y33  1  0.95094600  0.30880633  0.12403060  1.0
  Y  Y34  1  0.95094600  0.64213967  0.12403060  1.0
  Y  Y35  1  0.95094600  0.97547300  0.12403060  1.0
  Y  Y36  1  0.31652133  0.15826067  0.07239360  1.0
  Y  Y37  1  0.31652133  0.49159400  0.07239360  1.0
  Y  Y38  1  0.31652133  0.82492733  0.07239360  1.0
  Y  Y39  1  0.64985467  0.15826067  0.07239360  1.0
  Y  Y40  1  0.64985467  0.49159400  0.07239360  1.0
  Y  Y41  1  0.64985467  0.82492733  0.07239360  1.0
  Y  Y42  1  0.98318800  0.15826067  0.07239360  1.0
  Y  Y43  1  0.98318800  0.49159400  0.07239360  1.0
  Y  Y44  1  0.98318800  0.82492733  0.07239360  1.0
  Y  Y45  1  0.31652133  0.32492733  0.17239360  1.0
  Y  Y46  1  0.31652133  0.65826067  0.17239360  1.0
  Y  Y47  1  0.31652133  0.99159400  0.17239360  1.0
  Y  Y48  1  0.64985467  0.32492733  0.17239360  1.0
  Y  Y49  1  0.64985467  0.65826067  0.17239360  1.0
  Y  Y50  1  0.64985467  0.99159400  0.17239360  1.0
  Y  Y51  1  0.98318800  0.32492733  0.17239360  1.0
  Y  Y52  1  0.98318800  0.65826067  0.17239360  1.0
  Y  Y53  1  0.98318800  0.99159400  0.17239360  1.0
  Y  Y54  1  0.04905400  0.02452700  0.07119260  1.0
  Y  Y55  1  0.04905400  0.35786033  0.07119260  1.0
  Y  Y56  1  0.04905400  0.69119367  0.07119260  1.0
  Y  Y57  1  0.38238733  0.02452700  0.07119260  1.0
  Y  Y58  1  0.38238733  0.35786033  0.07119260  1.0
  Y  Y59  1  0.38238733  0.69119367  0.07119260  1.0
  Y  Y60  1  0.71572067  0.02452700  0.07119260  1.0
  Y  Y61  1  0.71572067  0.35786033  0.07119260  1.0
  Y  Y62  1  0.71572067  0.69119367  0.07119260  1.0
  Y  Y63  1  0.04905400  0.19119367  0.17119260  1.0
  Y  Y64  1  0.04905400  0.52452700  0.17119260  1.0
  Y  Y65  1  0.04905400  0.85786033  0.17119260  1.0
  Y  Y66  1  0.38238733  0.19119367  0.17119260  1.0
  Y  Y67  1  0.38238733  0.52452700  0.17119260  1.0
  Y  Y68  1  0.38238733  0.85786033  0.17119260  1.0
  Y  Y69  1  0.71572067  0.19119367  0.17119260  1.0
  Y  Y70  1  0.71572067  0.52452700  0.17119260  1.0
  Y  Y71  1  0.71572067  0.85786033  0.17119260  1.0
  Ni  Ni72  1  0.09272700  0.04636350  0.13670210  1.0
  Ni  Ni73  1  0.09272700  0.37969683  0.13670210  1.0
  Ni  Ni74  1  0.09272700  0.71303017  0.13670210  1.0
  Ni  Ni75  1  0.42606033  0.04636350  0.13670210  1.0
  Ni  Ni76  1  0.42606033  0.37969683  0.13670210  1.0
  Ni  Ni77  1  0.42606033  0.71303017  0.13670210  1.0
  Ni  Ni78  1  0.75939367  0.04636350  0.13670210  1.0
  Ni  Ni79  1  0.75939367  0.37969683  0.13670210  1.0
  Ni  Ni80  1  0.75939367  0.71303017  0.13670210  1.0
  Ni  Ni81  1  0.09272700  0.21303017  0.03670210  1.0
  Ni  Ni82  1  0.09272700  0.54636350  0.03670210  1.0
  Ni  Ni83  1  0.09272700  0.87969683  0.03670210  1.0
  Ni  Ni84  1  0.42606033  0.21303017  0.03670210  1.0
  Ni  Ni85  1  0.42606033  0.54636350  0.03670210  1.0
  Ni  Ni86  1  0.42606033  0.87969683  0.03670210  1.0
  Ni  Ni87  1  0.75939367  0.21303017  0.03670210  1.0
  Ni  Ni88  1  0.75939367  0.54636350  0.03670210  1.0
  Ni  Ni89  1  0.75939367  0.87969683  0.03670210  1.0
  Ni  Ni90  1  0.20391167  0.10195583  0.10347910  1.0
  Ni  Ni91  1  0.20391167  0.43528917  0.10347910  1.0
  Ni  Ni92  1  0.20391167  0.76862250  0.10347910  1.0
  Ni  Ni93  1  0.53724500  0.10195583  0.10347910  1.0
  Ni  Ni94  1  0.53724500  0.43528917  0.10347910  1.0
  Ni  Ni95  1  0.53724500  0.76862250  0.10347910  1.0
  Ni  Ni96  1  0.87057833  0.10195583  0.10347910  1.0
  Ni  Ni97  1  0.87057833  0.43528917  0.10347910  1.0
  Ni  Ni98  1  0.87057833  0.76862250  0.10347910  1.0
  Ni  Ni99  1  0.20391167  0.26862250  0.00347910  1.0
  Ni  Ni100  1  0.20391167  0.60195583  0.00347910  1.0
  Ni  Ni101  1  0.20391167  0.93528917  0.00347910  1.0
  Ni  Ni102  1  0.53724500  0.26862250  0.00347910  1.0
  Ni  Ni103  1  0.53724500  0.60195583  0.00347910  1.0
  Ni  Ni104  1  0.53724500  0.93528917  0.00347910  1.0
  Ni  Ni105  1  0.87057833  0.26862250  0.00347910  1.0
  Ni  Ni106  1  0.87057833  0.60195583  0.00347910  1.0
  Ni  Ni107  1  0.87057833  0.93528917  0.00347910  1.0
  Ni  Ni108  1  0.20333733  0.10166867  0.00238840  1.0
  Ni  Ni109  1  0.20333733  0.43500200  0.00238840  1.0
  Ni  Ni110  1  0.20333733  0.76833533  0.00238840  1.0
  Ni  Ni111  1  0.53667067  0.10166867  0.00238840  1.0
  Ni  Ni112  1  0.53667067  0.43500200  0.00238840  1.0
  Ni  Ni113  1  0.53667067  0.76833533  0.00238840  1.0
  Ni  Ni114  1  0.87000400  0.10166867  0.00238840  1.0
  Ni  Ni115  1  0.87000400  0.43500200  0.00238840  1.0
  Ni  Ni116  1  0.87000400  0.76833533  0.00238840  1.0
  Ni  Ni117  1  0.20333733  0.26833533  0.10238840  1.0
  Ni  Ni118  1  0.20333733  0.60166867  0.10238840  1.0
  Ni  Ni119  1  0.20333733  0.93500200  0.10238840  1.0
  Ni  Ni120  1  0.53667067  0.26833533  0.10238840  1.0
  Ni  Ni121  1  0.53667067  0.60166867  0.10238840  1.0
  Ni  Ni122  1  0.53667067  0.93500200  0.10238840  1.0
  Ni  Ni123  1  0.87000400  0.26833533  0.10238840  1.0
  Ni  Ni124  1  0.87000400  0.60166867  0.10238840  1.0
  Ni  Ni125  1  0.87000400  0.93500200  0.10238840  1.0
  Ni  Ni126  1  0.12942167  0.06471083  0.19174410  1.0
  Ni  Ni127  1  0.12942167  0.39804417  0.19174410  1.0
  Ni  Ni128  1  0.12942167  0.73137750  0.19174410  1.0
  Ni  Ni129  1  0.46275500  0.06471083  0.19174410  1.0
  Ni  Ni130  1  0.46275500  0.39804417  0.19174410  1.0
  Ni  Ni131  1  0.46275500  0.73137750  0.19174410  1.0
  Ni  Ni132  1  0.79608833  0.06471083  0.19174410  1.0
  Ni  Ni133  1  0.79608833  0.39804417  0.19174410  1.0
  Ni  Ni134  1  0.79608833  0.73137750  0.19174410  1.0
  Ni  Ni135  1  0.12942167  0.23137750  0.09174410  1.0
  Ni  Ni136  1  0.12942167  0.56471083  0.09174410  1.0
  Ni  Ni137  1  0.12942167  0.89804417  0.09174410  1.0
  Ni  Ni138  1  0.46275500  0.23137750  0.09174410  1.0
  Ni  Ni139  1  0.46275500  0.56471083  0.09174410  1.0
  Ni  Ni140  1  0.46275500  0.89804417  0.09174410  1.0
  Ni  Ni141  1  0.79608833  0.23137750  0.09174410  1.0
  Ni  Ni142  1  0.79608833  0.56471083  0.09174410  1.0
  Ni  Ni143  1  0.79608833  0.89804417  0.09174410  1.0
  Ni  Ni144  1  0.16666667  0.00000000  0.19761160  1.0
  Ni  Ni145  1  0.16666667  0.33333333  0.19761160  1.0
  Ni  Ni146  1  0.16666667  0.66666667  0.19761160  1.0
  Ni  Ni147  1  0.50000000  0.00000000  0.19761160  1.0
  Ni  Ni148  1  0.50000000  0.33333333  0.19761160  1.0
  Ni  Ni149  1  0.50000000  0.66666667  0.19761160  1.0
  Ni  Ni150  1  0.83333333  0.00000000  0.19761160  1.0
  Ni  Ni151  1  0.83333333  0.33333333  0.19761160  1.0
  Ni  Ni152  1  0.83333333  0.66666667  0.19761160  1.0
  Ni  Ni153  1  0.16666667  0.16666667  0.09761160  1.0
  Ni  Ni154  1  0.16666667  0.50000000  0.09761160  1.0
  Ni  Ni155  1  0.16666667  0.83333333  0.09761160  1.0
  Ni  Ni156  1  0.50000000  0.16666667  0.09761160  1.0
  Ni  Ni157  1  0.50000000  0.50000000  0.09761160  1.0
  Ni  Ni158  1  0.50000000  0.83333333  0.09761160  1.0
  Ni  Ni159  1  0.83333333  0.16666667  0.09761160  1.0
  Ni  Ni160  1  0.83333333  0.50000000  0.09761160  1.0
  Ni  Ni161  1  0.83333333  0.83333333  0.09761160  1.0
  Ni  Ni162  1  0.29704467  0.06499800  0.09283480  1.0
  Ni  Ni163  1  0.29704467  0.39833133  0.09283480  1.0
  Ni  Ni164  1  0.29704467  0.73166467  0.09283480  1.0
  Ni  Ni165  1  0.63037800  0.06499800  0.09283480  1.0
  Ni  Ni166  1  0.63037800  0.39833133  0.09283480  1.0
  Ni  Ni167  1  0.63037800  0.73166467  0.09283480  1.0
  Ni  Ni168  1  0.96371133  0.06499800  0.09283480  1.0
  Ni  Ni169  1  0.96371133  0.39833133  0.09283480  1.0
  Ni  Ni170  1  0.96371133  0.73166467  0.09283480  1.0
  Ni  Ni171  1  0.29704467  0.23166467  0.19283480  1.0
  Ni  Ni172  1  0.29704467  0.56499800  0.19283480  1.0
  Ni  Ni173  1  0.29704467  0.89833133  0.19283480  1.0
  Ni  Ni174  1  0.63037800  0.23166467  0.19283480  1.0
  Ni  Ni175  1  0.63037800  0.56499800  0.19283480  1.0
  Ni  Ni176  1  0.63037800  0.89833133  0.19283480  1.0
  Ni  Ni177  1  0.96371133  0.23166467  0.19283480  1.0
  Ni  Ni178  1  0.96371133  0.56499800  0.19283480  1.0
  Ni  Ni179  1  0.96371133  0.89833133  0.19283480  1.0
  Ni  Ni180  1  0.16666667  0.08333333  0.04761160  1.0
  Ni  Ni181  1  0.16666667  0.41666667  0.04761160  1.0
  Ni  Ni182  1  0.16666667  0.75000000  0.04761160  1.0
  Ni  Ni183  1  0.50000000  0.08333333  0.04761160  1.0
  Ni  Ni184  1  0.50000000  0.41666667  0.04761160  1.0
  Ni  Ni185  1  0.50000000  0.75000000  0.04761160  1.0
  Ni  Ni186  1  0.83333333  0.08333333  0.04761160  1.0
  Ni  Ni187  1  0.83333333  0.41666667  0.04761160  1.0
  Ni  Ni188  1  0.83333333  0.75000000  0.04761160  1.0
  Ni  Ni189  1  0.16666667  0.25000000  0.14761160  1.0
  Ni  Ni190  1  0.16666667  0.58333333  0.14761160  1.0
  Ni  Ni191  1  0.16666667  0.91666667  0.14761160  1.0
  Ni  Ni192  1  0.50000000  0.25000000  0.14761160  1.0
  Ni  Ni193  1  0.50000000  0.58333333  0.14761160  1.0
  Ni  Ni194  1  0.50000000  0.91666667  0.14761160  1.0
  Ni  Ni195  1  0.83333333  0.25000000  0.14761160  1.0
  Ni  Ni196  1  0.83333333  0.58333333  0.14761160  1.0
  Ni  Ni197  1  0.83333333  0.91666667  0.14761160  1.0
  Ni  Ni198  1  0.03628867  0.10166867  0.00238840  1.0
  Ni  Ni199  1  0.03628867  0.43500200  0.00238840  1.0
  Ni  Ni200  1  0.03628867  0.76833533  0.00238840  1.0
  Ni  Ni201  1  0.36962200  0.10166867  0.00238840  1.0
  Ni  Ni202  1  0.36962200  0.43500200  0.00238840  1.0
  Ni  Ni203  1  0.36962200  0.76833533  0.00238840  1.0
  Ni  Ni204  1  0.70295533  0.10166867  0.00238840  1.0
  Ni  Ni205  1  0.70295533  0.43500200  0.00238840  1.0
  Ni  Ni206  1  0.70295533  0.76833533  0.00238840  1.0
  Ni  Ni207  1  0.03628867  0.26833533  0.10238840  1.0
  Ni  Ni208  1  0.03628867  0.60166867  0.10238840  1.0
  Ni  Ni209  1  0.03628867  0.93500200  0.10238840  1.0
  Ni  Ni210  1  0.36962200  0.26833533  0.10238840  1.0
  Ni  Ni211  1  0.36962200  0.60166867  0.10238840  1.0
  Ni  Ni212  1  0.36962200  0.93500200  0.10238840  1.0
  Ni  Ni213  1  0.70295533  0.26833533  0.10238840  1.0
  Ni  Ni214  1  0.70295533  0.60166867  0.10238840  1.0
  Ni  Ni215  1  0.70295533  0.93500200  0.10238840  1.0
  Ni  Ni216  1  0.24060633  0.12030317  0.15852110  1.0
  Ni  Ni217  1  0.24060633  0.45363650  0.15852110  1.0
  Ni  Ni218  1  0.24060633  0.78696983  0.15852110  1.0
  Ni  Ni219  1  0.57393967  0.12030317  0.15852110  1.0
  Ni  Ni220  1  0.57393967  0.45363650  0.15852110  1.0
  Ni  Ni221  1  0.57393967  0.78696983  0.15852110  1.0
  Ni  Ni222  1  0.90727300  0.12030317  0.15852110  1.0
  Ni  Ni223  1  0.90727300  0.45363650  0.15852110  1.0
  Ni  Ni224  1  0.90727300  0.78696983  0.15852110  1.0
  Ni  Ni225  1  0.24060633  0.28696983  0.05852110  1.0
  Ni  Ni226  1  0.24060633  0.62030317  0.05852110  1.0
  Ni  Ni227  1  0.24060633  0.95363650  0.05852110  1.0
  Ni  Ni228  1  0.57393967  0.28696983  0.05852110  1.0
  Ni  Ni229  1  0.57393967  0.62030317  0.05852110  1.0
  Ni  Ni230  1  0.57393967  0.95363650  0.05852110  1.0
  Ni  Ni231  1  0.90727300  0.28696983  0.05852110  1.0
  Ni  Ni232  1  0.90727300  0.62030317  0.05852110  1.0
  Ni  Ni233  1  0.90727300  0.95363650  0.05852110  1.0
  Ni  Ni234  1  0.12999600  0.06499800  0.09283480  1.0
  Ni  Ni235  1  0.12999600  0.39833133  0.09283480  1.0
  Ni  Ni236  1  0.12999600  0.73166467  0.09283480  1.0
  Ni  Ni237  1  0.46332933  0.06499800  0.09283480  1.0
  Ni  Ni238  1  0.46332933  0.39833133  0.09283480  1.0
  Ni  Ni239  1  0.46332933  0.73166467  0.09283480  1.0
  Ni  Ni240  1  0.79666267  0.06499800  0.09283480  1.0
  Ni  Ni241  1  0.79666267  0.39833133  0.09283480  1.0
  Ni  Ni242  1  0.79666267  0.73166467  0.09283480  1.0
  Ni  Ni243  1  0.12999600  0.23166467  0.19283480  1.0
  Ni  Ni244  1  0.12999600  0.56499800  0.19283480  1.0
  Ni  Ni245  1  0.12999600  0.89833133  0.19283480  1.0
  Ni  Ni246  1  0.46332933  0.23166467  0.19283480  1.0
  Ni  Ni247  1  0.46332933  0.56499800  0.19283480  1.0
  Ni  Ni248  1  0.46332933  0.89833133  0.19283480  1.0
  Ni  Ni249  1  0.79666267  0.23166467  0.19283480  1.0
  Ni  Ni250  1  0.79666267  0.56499800  0.19283480  1.0
  Ni  Ni251  1  0.79666267  0.89833133  0.19283480  1.0
  Ni  Ni252  1  0.20333733  0.01814433  0.05250300  1.0
  Ni  Ni253  1  0.20333733  0.35147767  0.05250300  1.0
  Ni  Ni254  1  0.20333733  0.68481100  0.05250300  1.0
  Ni  Ni255  1  0.53667067  0.01814433  0.05250300  1.0
  Ni  Ni256  1  0.53667067  0.35147767  0.05250300  1.0
  Ni  Ni257  1  0.53667067  0.68481100  0.05250300  1.0
  Ni  Ni258  1  0.87000400  0.01814433  0.05250300  1.0
  Ni  Ni259  1  0.87000400  0.35147767  0.05250300  1.0
  Ni  Ni260  1  0.87000400  0.68481100  0.05250300  1.0
  Ni  Ni261  1  0.20333733  0.18481100  0.15250300  1.0
  Ni  Ni262  1  0.20333733  0.51814433  0.15250300  1.0
  Ni  Ni263  1  0.20333733  0.85147767  0.15250300  1.0
  Ni  Ni264  1  0.53667067  0.18481100  0.15250300  1.0
  Ni  Ni265  1  0.53667067  0.51814433  0.15250300  1.0
  Ni  Ni266  1  0.53667067  0.85147767  0.15250300  1.0
  Ni  Ni267  1  0.87000400  0.18481100  0.15250300  1.0
  Ni  Ni268  1  0.87000400  0.51814433  0.15250300  1.0
  Ni  Ni269  1  0.87000400  0.85147767  0.15250300  1.0
  Ni  Ni270  1  0.16666667  0.08333333  0.14761160  1.0
  Ni  Ni271  1  0.16666667  0.41666667  0.14761160  1.0
  Ni  Ni272  1  0.16666667  0.75000000  0.14761160  1.0
  Ni  Ni273  1  0.50000000  0.08333333  0.14761160  1.0
  Ni  Ni274  1  0.50000000  0.41666667  0.14761160  1.0
  Ni  Ni275  1  0.50000000  0.75000000  0.14761160  1.0
  Ni  Ni276  1  0.83333333  0.08333333  0.14761160  1.0
  Ni  Ni277  1  0.83333333  0.41666667  0.14761160  1.0
  Ni  Ni278  1  0.83333333  0.75000000  0.14761160  1.0
  Ni  Ni279  1  0.16666667  0.25000000  0.04761160  1.0
  Ni  Ni280  1  0.16666667  0.58333333  0.04761160  1.0
  Ni  Ni281  1  0.16666667  0.91666667  0.04761160  1.0
  Ni  Ni282  1  0.50000000  0.25000000  0.04761160  1.0
  Ni  Ni283  1  0.50000000  0.58333333  0.04761160  1.0
  Ni  Ni284  1  0.50000000  0.91666667  0.04761160  1.0
  Ni  Ni285  1  0.83333333  0.25000000  0.04761160  1.0
  Ni  Ni286  1  0.83333333  0.58333333  0.04761160  1.0
  Ni  Ni287  1  0.83333333  0.91666667  0.04761160  1.0
  Ni  Ni288  1  0.00000000  0.08333333  0.14761160  1.0
  Ni  Ni289  1  0.00000000  0.41666667  0.14761160  1.0
  Ni  Ni290  1  0.00000000  0.75000000  0.14761160  1.0
  Ni  Ni291  1  0.33333333  0.08333333  0.14761160  1.0
  Ni  Ni292  1  0.33333333  0.41666667  0.14761160  1.0
  Ni  Ni293  1  0.33333333  0.75000000  0.14761160  1.0
  Ni  Ni294  1  0.66666667  0.08333333  0.14761160  1.0
  Ni  Ni295  1  0.66666667  0.41666667  0.14761160  1.0
  Ni  Ni296  1  0.66666667  0.75000000  0.14761160  1.0
  Ni  Ni297  1  0.00000000  0.25000000  0.04761160  1.0
  Ni  Ni298  1  0.00000000  0.58333333  0.04761160  1.0
  Ni  Ni299  1  1.00000000  0.91666667  0.04761160  1.0
  Ni  Ni300  1  0.33333333  0.25000000  0.04761160  1.0
  Ni  Ni301  1  0.33333333  0.58333333  0.04761160  1.0
  Ni  Ni302  1  0.33333333  0.91666667  0.04761160  1.0
  Ni  Ni303  1  0.66666667  0.25000000  0.04761160  1.0
  Ni  Ni304  1  0.66666667  0.58333333  0.04761160  1.0
  Ni  Ni305  1  0.66666667  0.91666667  0.04761160  1.0
  Ni  Ni306  1  0.12999600  0.14852233  0.04272020  1.0
  Ni  Ni307  1  0.12999600  0.48185567  0.04272020  1.0
  Ni  Ni308  1  0.12999600  0.81518900  0.04272020  1.0
  Ni  Ni309  1  0.46332933  0.14852233  0.04272020  1.0
  Ni  Ni310  1  0.46332933  0.48185567  0.04272020  1.0
  Ni  Ni311  1  0.46332933  0.81518900  0.04272020  1.0
  Ni  Ni312  1  0.79666267  0.14852233  0.04272020  1.0
  Ni  Ni313  1  0.79666267  0.48185567  0.04272020  1.0
  Ni  Ni314  1  0.79666267  0.81518900  0.04272020  1.0
  Ni  Ni315  1  0.12999600  0.31518900  0.14272020  1.0
  Ni  Ni316  1  0.12999600  0.64852233  0.14272020  1.0
  Ni  Ni317  1  0.12999600  0.98185567  0.14272020  1.0
  Ni  Ni318  1  0.46332933  0.31518900  0.14272020  1.0
  Ni  Ni319  1  0.46332933  0.64852233  0.14272020  1.0
  Ni  Ni320  1  0.46332933  0.98185567  0.14272020  1.0
  Ni  Ni321  1  0.79666267  0.31518900  0.14272020  1.0
  Ni  Ni322  1  0.79666267  0.64852233  0.14272020  1.0
  Ni  Ni323  1  0.79666267  0.98185567  0.14272020  1.0
  Y  Y324  1  0.01681200  0.00840600  0.22282960  1.0
  Y  Y325  1  0.01681200  0.34173933  0.22282960  1.0
  Y  Y326  1  0.01681200  0.67507267  0.22282960  1.0
  Y  Y327  1  0.35014533  0.00840600  0.22282960  1.0
  Y  Y328  1  0.35014533  0.34173933  0.22282960  1.0
  Y  Y329  1  0.35014533  0.67507267  0.22282960  1.0
  Y  Y330  1  0.68347867  0.00840600  0.22282960  1.0
  Y  Y331  1  0.68347867  0.34173933  0.22282960  1.0
  Y  Y332  1  0.68347867  0.67507267  0.22282960  1.0
  Y  Y333  1  0.01681200  0.17507267  0.32282960  1.0
  Y  Y334  1  0.01681200  0.50840600  0.32282960  1.0
  Y  Y335  1  0.01681200  0.84173933  0.32282960  1.0
  Y  Y336  1  0.35014533  0.17507267  0.32282960  1.0
  Y  Y337  1  0.35014533  0.50840600  0.32282960  1.0
  Y  Y338  1  0.35014533  0.84173933  0.32282960  1.0
  Y  Y339  1  0.68347867  0.17507267  0.32282960  1.0
  Y  Y340  1  0.68347867  0.50840600  0.32282960  1.0
  Y  Y341  1  0.68347867  0.84173933  0.32282960  1.0
  Y  Y342  1  0.28427933  0.14213967  0.22403060  1.0
  Y  Y343  1  0.28427933  0.47547300  0.22403060  1.0
  Y  Y344  1  0.28427933  0.80880633  0.22403060  1.0
  Y  Y345  1  0.61761267  0.14213967  0.22403060  1.0
  Y  Y346  1  0.61761267  0.47547300  0.22403060  1.0
  Y  Y347  1  0.61761267  0.80880633  0.22403060  1.0
  Y  Y348  1  0.95094600  0.14213967  0.22403060  1.0
  Y  Y349  1  0.95094600  0.47547300  0.22403060  1.0
  Y  Y350  1  0.95094600  0.80880633  0.22403060  1.0
  Y  Y351  1  0.28427933  0.30880633  0.32403060  1.0
  Y  Y352  1  0.28427933  0.64213967  0.32403060  1.0
  Y  Y353  1  0.28427933  0.97547300  0.32403060  1.0
  Y  Y354  1  0.61761267  0.30880633  0.32403060  1.0
  Y  Y355  1  0.61761267  0.64213967  0.32403060  1.0
  Y  Y356  1  0.61761267  0.97547300  0.32403060  1.0
  Y  Y357  1  0.95094600  0.30880633  0.32403060  1.0
  Y  Y358  1  0.95094600  0.64213967  0.32403060  1.0
  Y  Y359  1  0.95094600  0.97547300  0.32403060  1.0
  Y  Y360  1  0.31652133  0.15826067  0.27239360  1.0
  Y  Y361  1  0.31652133  0.49159400  0.27239360  1.0
  Y  Y362  1  0.31652133  0.82492733  0.27239360  1.0
  Y  Y363  1  0.64985467  0.15826067  0.27239360  1.0
  Y  Y364  1  0.64985467  0.49159400  0.27239360  1.0
  Y  Y365  1  0.64985467  0.82492733  0.27239360  1.0
  Y  Y366  1  0.98318800  0.15826067  0.27239360  1.0
  Y  Y367  1  0.98318800  0.49159400  0.27239360  1.0
  Y  Y368  1  0.98318800  0.82492733  0.27239360  1.0
  Y  Y369  1  0.31652133  0.32492733  0.37239360  1.0
  Y  Y370  1  0.31652133  0.65826067  0.37239360  1.0
  Y  Y371  1  0.31652133  0.99159400  0.37239360  1.0
  Y  Y372  1  0.64985467  0.32492733  0.37239360  1.0
  Y  Y373  1  0.64985467  0.65826067  0.37239360  1.0
  Y  Y374  1  0.64985467  0.99159400  0.37239360  1.0
  Y  Y375  1  0.98318800  0.32492733  0.37239360  1.0
  Y  Y376  1  0.98318800  0.65826067  0.37239360  1.0
  Y  Y377  1  0.98318800  0.99159400  0.37239360  1.0
  Y  Y378  1  0.04905400  0.02452700  0.27119260  1.0
  Y  Y379  1  0.04905400  0.35786033  0.27119260  1.0
  Y  Y380  1  0.04905400  0.69119367  0.27119260  1.0
  Y  Y381  1  0.38238733  0.02452700  0.27119260  1.0
  Y  Y382  1  0.38238733  0.35786033  0.27119260  1.0
  Y  Y383  1  0.38238733  0.69119367  0.27119260  1.0
  Y  Y384  1  0.71572067  0.02452700  0.27119260  1.0
  Y  Y385  1  0.71572067  0.35786033  0.27119260  1.0
  Y  Y386  1  0.71572067  0.69119367  0.27119260  1.0
  Y  Y387  1  0.04905400  0.19119367  0.37119260  1.0
  Y  Y388  1  0.04905400  0.52452700  0.37119260  1.0
  Y  Y389  1  0.04905400  0.85786033  0.37119260  1.0
  Y  Y390  1  0.38238733  0.19119367  0.37119260  1.0
  Y  Y391  1  0.38238733  0.52452700  0.37119260  1.0
  Y  Y392  1  0.38238733  0.85786033  0.37119260  1.0
  Y  Y393  1  0.71572067  0.19119367  0.37119260  1.0
  Y  Y394  1  0.71572067  0.52452700  0.37119260  1.0
  Y  Y395  1  0.71572067  0.85786033  0.37119260  1.0
  Ni  Ni396  1  0.09272700  0.04636350  0.33670210  1.0
  Ni  Ni397  1  0.09272700  0.37969683  0.33670210  1.0
  Ni  Ni398  1  0.09272700  0.71303017  0.33670210  1.0
  Ni  Ni399  1  0.42606033  0.04636350  0.33670210  1.0
  Ni  Ni400  1  0.42606033  0.37969683  0.33670210  1.0
  Ni  Ni401  1  0.42606033  0.71303017  0.33670210  1.0
  Ni  Ni402  1  0.75939367  0.04636350  0.33670210  1.0
  Ni  Ni403  1  0.75939367  0.37969683  0.33670210  1.0
  Ni  Ni404  1  0.75939367  0.71303017  0.33670210  1.0
  Ni  Ni405  1  0.09272700  0.21303017  0.23670210  1.0
  Ni  Ni406  1  0.09272700  0.54636350  0.23670210  1.0
  Ni  Ni407  1  0.09272700  0.87969683  0.23670210  1.0
  Ni  Ni408  1  0.42606033  0.21303017  0.23670210  1.0
  Ni  Ni409  1  0.42606033  0.54636350  0.23670210  1.0
  Ni  Ni410  1  0.42606033  0.87969683  0.23670210  1.0
  Ni  Ni411  1  0.75939367  0.21303017  0.23670210  1.0
  Ni  Ni412  1  0.75939367  0.54636350  0.23670210  1.0
  Ni  Ni413  1  0.75939367  0.87969683  0.23670210  1.0
  Ni  Ni414  1  0.20391167  0.10195583  0.30347910  1.0
  Ni  Ni415  1  0.20391167  0.43528917  0.30347910  1.0
  Ni  Ni416  1  0.20391167  0.76862250  0.30347910  1.0
  Ni  Ni417  1  0.53724500  0.10195583  0.30347910  1.0
  Ni  Ni418  1  0.53724500  0.43528917  0.30347910  1.0
  Ni  Ni419  1  0.53724500  0.76862250  0.30347910  1.0
  Ni  Ni420  1  0.87057833  0.10195583  0.30347910  1.0
  Ni  Ni421  1  0.87057833  0.43528917  0.30347910  1.0
  Ni  Ni422  1  0.87057833  0.76862250  0.30347910  1.0
  Ni  Ni423  1  0.20391167  0.26862250  0.20347910  1.0
  Ni  Ni424  1  0.20391167  0.60195583  0.20347910  1.0
  Ni  Ni425  1  0.20391167  0.93528917  0.20347910  1.0
  Ni  Ni426  1  0.53724500  0.26862250  0.20347910  1.0
  Ni  Ni427  1  0.53724500  0.60195583  0.20347910  1.0
  Ni  Ni428  1  0.53724500  0.93528917  0.20347910  1.0
  Ni  Ni429  1  0.87057833  0.26862250  0.20347910  1.0
  Ni  Ni430  1  0.87057833  0.60195583  0.20347910  1.0
  Ni  Ni431  1  0.87057833  0.93528917  0.20347910  1.0
  Ni  Ni432  1  0.20333733  0.10166867  0.20238840  1.0
  Ni  Ni433  1  0.20333733  0.43500200  0.20238840  1.0
  Ni  Ni434  1  0.20333733  0.76833533  0.20238840  1.0
  Ni  Ni435  1  0.53667067  0.10166867  0.20238840  1.0
  Ni  Ni436  1  0.53667067  0.43500200  0.20238840  1.0
  Ni  Ni437  1  0.53667067  0.76833533  0.20238840  1.0
  Ni  Ni438  1  0.87000400  0.10166867  0.20238840  1.0
  Ni  Ni439  1  0.87000400  0.43500200  0.20238840  1.0
  Ni  Ni440  1  0.87000400  0.76833533  0.20238840  1.0
  Ni  Ni441  1  0.20333733  0.26833533  0.30238840  1.0
  Ni  Ni442  1  0.20333733  0.60166867  0.30238840  1.0
  Ni  Ni443  1  0.20333733  0.93500200  0.30238840  1.0
  Ni  Ni444  1  0.53667067  0.26833533  0.30238840  1.0
  Ni  Ni445  1  0.53667067  0.60166867  0.30238840  1.0
  Ni  Ni446  1  0.53667067  0.93500200  0.30238840  1.0
  Ni  Ni447  1  0.87000400  0.26833533  0.30238840  1.0
  Ni  Ni448  1  0.87000400  0.60166867  0.30238840  1.0
  Ni  Ni449  1  0.87000400  0.93500200  0.30238840  1.0
  Ni  Ni450  1  0.12942167  0.06471083  0.39174410  1.0
  Ni  Ni451  1  0.12942167  0.39804417  0.39174410  1.0
  Ni  Ni452  1  0.12942167  0.73137750  0.39174410  1.0
  Ni  Ni453  1  0.46275500  0.06471083  0.39174410  1.0
  Ni  Ni454  1  0.46275500  0.39804417  0.39174410  1.0
  Ni  Ni455  1  0.46275500  0.73137750  0.39174410  1.0
  Ni  Ni456  1  0.79608833  0.06471083  0.39174410  1.0
  Ni  Ni457  1  0.79608833  0.39804417  0.39174410  1.0
  Ni  Ni458  1  0.79608833  0.73137750  0.39174410  1.0
  Ni  Ni459  1  0.12942167  0.23137750  0.29174410  1.0
  Ni  Ni460  1  0.12942167  0.56471083  0.29174410  1.0
  Ni  Ni461  1  0.12942167  0.89804417  0.29174410  1.0
  Ni  Ni462  1  0.46275500  0.23137750  0.29174410  1.0
  Ni  Ni463  1  0.46275500  0.56471083  0.29174410  1.0
  Ni  Ni464  1  0.46275500  0.89804417  0.29174410  1.0
  Ni  Ni465  1  0.79608833  0.23137750  0.29174410  1.0
  Ni  Ni466  1  0.79608833  0.56471083  0.29174410  1.0
  Ni  Ni467  1  0.79608833  0.89804417  0.29174410  1.0
  Ni  Ni468  1  0.16666667  0.00000000  0.39761160  1.0
  Ni  Ni469  1  0.16666667  0.33333333  0.39761160  1.0
  Ni  Ni470  1  0.16666667  0.66666667  0.39761160  1.0
  Ni  Ni471  1  0.50000000  0.00000000  0.39761160  1.0
  Ni  Ni472  1  0.50000000  0.33333333  0.39761160  1.0
  Ni  Ni473  1  0.50000000  0.66666667  0.39761160  1.0
  Ni  Ni474  1  0.83333333  0.00000000  0.39761160  1.0
  Ni  Ni475  1  0.83333333  0.33333333  0.39761160  1.0
  Ni  Ni476  1  0.83333333  0.66666667  0.39761160  1.0
  Ni  Ni477  1  0.16666667  0.16666667  0.29761160  1.0
  Ni  Ni478  1  0.16666667  0.50000000  0.29761160  1.0
  Ni  Ni479  1  0.16666667  0.83333333  0.29761160  1.0
  Ni  Ni480  1  0.50000000  0.16666667  0.29761160  1.0
  Ni  Ni481  1  0.50000000  0.50000000  0.29761160  1.0
  Ni  Ni482  1  0.50000000  0.83333333  0.29761160  1.0
  Ni  Ni483  1  0.83333333  0.16666667  0.29761160  1.0
  Ni  Ni484  1  0.83333333  0.50000000  0.29761160  1.0
  Ni  Ni485  1  0.83333333  0.83333333  0.29761160  1.0
  Ni  Ni486  1  0.29704467  0.06499800  0.29283480  1.0
  Ni  Ni487  1  0.29704467  0.39833133  0.29283480  1.0
  Ni  Ni488  1  0.29704467  0.73166467  0.29283480  1.0
  Ni  Ni489  1  0.63037800  0.06499800  0.29283480  1.0
  Ni  Ni490  1  0.63037800  0.39833133  0.29283480  1.0
  Ni  Ni491  1  0.63037800  0.73166467  0.29283480  1.0
  Ni  Ni492  1  0.96371133  0.06499800  0.29283480  1.0
  Ni  Ni493  1  0.96371133  0.39833133  0.29283480  1.0
  Ni  Ni494  1  0.96371133  0.73166467  0.29283480  1.0
  Ni  Ni495  1  0.29704467  0.23166467  0.39283480  1.0
  Ni  Ni496  1  0.29704467  0.56499800  0.39283480  1.0
  Ni  Ni497  1  0.29704467  0.89833133  0.39283480  1.0
  Ni  Ni498  1  0.63037800  0.23166467  0.39283480  1.0
  Ni  Ni499  1  0.63037800  0.56499800  0.39283480  1.0
  Ni  Ni500  1  0.63037800  0.89833133  0.39283480  1.0
  Ni  Ni501  1  0.96371133  0.23166467  0.39283480  1.0
  Ni  Ni502  1  0.96371133  0.56499800  0.39283480  1.0
  Ni  Ni503  1  0.96371133  0.89833133  0.39283480  1.0
  Ni  Ni504  1  0.16666667  0.08333333  0.24761160  1.0
  Ni  Ni505  1  0.16666667  0.41666667  0.24761160  1.0
  Ni  Ni506  1  0.16666667  0.75000000  0.24761160  1.0
  Ni  Ni507  1  0.50000000  0.08333333  0.24761160  1.0
  Ni  Ni508  1  0.50000000  0.41666667  0.24761160  1.0
  Ni  Ni509  1  0.50000000  0.75000000  0.24761160  1.0
  Ni  Ni510  1  0.83333333  0.08333333  0.24761160  1.0
  Ni  Ni511  1  0.83333333  0.41666667  0.24761160  1.0
  Ni  Ni512  1  0.83333333  0.75000000  0.24761160  1.0
  Ni  Ni513  1  0.16666667  0.25000000  0.34761160  1.0
  Ni  Ni514  1  0.16666667  0.58333333  0.34761160  1.0
  Ni  Ni515  1  0.16666667  0.91666667  0.34761160  1.0
  Ni  Ni516  1  0.50000000  0.25000000  0.34761160  1.0
  Ni  Ni517  1  0.50000000  0.58333333  0.34761160  1.0
  Ni  Ni518  1  0.50000000  0.91666667  0.34761160  1.0
  Ni  Ni519  1  0.83333333  0.25000000  0.34761160  1.0
  Ni  Ni520  1  0.83333333  0.58333333  0.34761160  1.0
  Ni  Ni521  1  0.83333333  0.91666667  0.34761160  1.0
  Ni  Ni522  1  0.03628867  0.10166867  0.20238840  1.0
  Ni  Ni523  1  0.03628867  0.43500200  0.20238840  1.0
  Ni  Ni524  1  0.03628867  0.76833533  0.20238840  1.0
  Ni  Ni525  1  0.36962200  0.10166867  0.20238840  1.0
  Ni  Ni526  1  0.36962200  0.43500200  0.20238840  1.0
  Ni  Ni527  1  0.36962200  0.76833533  0.20238840  1.0
  Ni  Ni528  1  0.70295533  0.10166867  0.20238840  1.0
  Ni  Ni529  1  0.70295533  0.43500200  0.20238840  1.0
  Ni  Ni530  1  0.70295533  0.76833533  0.20238840  1.0
  Ni  Ni531  1  0.03628867  0.26833533  0.30238840  1.0
  Ni  Ni532  1  0.03628867  0.60166867  0.30238840  1.0
  Ni  Ni533  1  0.03628867  0.93500200  0.30238840  1.0
  Ni  Ni534  1  0.36962200  0.26833533  0.30238840  1.0
  Ni  Ni535  1  0.36962200  0.60166867  0.30238840  1.0
  Ni  Ni536  1  0.36962200  0.93500200  0.30238840  1.0
  Ni  Ni537  1  0.70295533  0.26833533  0.30238840  1.0
  Ni  Ni538  1  0.70295533  0.60166867  0.30238840  1.0
  Ni  Ni539  1  0.70295533  0.93500200  0.30238840  1.0
  Ni  Ni540  1  0.24060633  0.12030317  0.35852110  1.0
  Ni  Ni541  1  0.24060633  0.45363650  0.35852110  1.0
  Ni  Ni542  1  0.24060633  0.78696983  0.35852110  1.0
  Ni  Ni543  1  0.57393967  0.12030317  0.35852110  1.0
  Ni  Ni544  1  0.57393967  0.45363650  0.35852110  1.0
  Ni  Ni545  1  0.57393967  0.78696983  0.35852110  1.0
  Ni  Ni546  1  0.90727300  0.12030317  0.35852110  1.0
  Ni  Ni547  1  0.90727300  0.45363650  0.35852110  1.0
  Ni  Ni548  1  0.90727300  0.78696983  0.35852110  1.0
  Ni  Ni549  1  0.24060633  0.28696983  0.25852110  1.0
  Ni  Ni550  1  0.24060633  0.62030317  0.25852110  1.0
  Ni  Ni551  1  0.24060633  0.95363650  0.25852110  1.0
  Ni  Ni552  1  0.57393967  0.28696983  0.25852110  1.0
  Ni  Ni553  1  0.57393967  0.62030317  0.25852110  1.0
  Ni  Ni554  1  0.57393967  0.95363650  0.25852110  1.0
  Ni  Ni555  1  0.90727300  0.28696983  0.25852110  1.0
  Ni  Ni556  1  0.90727300  0.62030317  0.25852110  1.0
  Ni  Ni557  1  0.90727300  0.95363650  0.25852110  1.0
  Ni  Ni558  1  0.12999600  0.06499800  0.29283480  1.0
  Ni  Ni559  1  0.12999600  0.39833133  0.29283480  1.0
  Ni  Ni560  1  0.12999600  0.73166467  0.29283480  1.0
  Ni  Ni561  1  0.46332933  0.06499800  0.29283480  1.0
  Ni  Ni562  1  0.46332933  0.39833133  0.29283480  1.0
  Ni  Ni563  1  0.46332933  0.73166467  0.29283480  1.0
  Ni  Ni564  1  0.79666267  0.06499800  0.29283480  1.0
  Ni  Ni565  1  0.79666267  0.39833133  0.29283480  1.0
  Ni  Ni566  1  0.79666267  0.73166467  0.29283480  1.0
  Ni  Ni567  1  0.12999600  0.23166467  0.39283480  1.0
  Ni  Ni568  1  0.12999600  0.56499800  0.39283480  1.0
  Ni  Ni569  1  0.12999600  0.89833133  0.39283480  1.0
  Ni  Ni570  1  0.46332933  0.23166467  0.39283480  1.0
  Ni  Ni571  1  0.46332933  0.56499800  0.39283480  1.0
  Ni  Ni572  1  0.46332933  0.89833133  0.39283480  1.0
  Ni  Ni573  1  0.79666267  0.23166467  0.39283480  1.0
  Ni  Ni574  1  0.79666267  0.56499800  0.39283480  1.0
  Ni  Ni575  1  0.79666267  0.89833133  0.39283480  1.0
  Ni  Ni576  1  0.20333733  0.01814433  0.25250300  1.0
  Ni  Ni577  1  0.20333733  0.35147767  0.25250300  1.0
  Ni  Ni578  1  0.20333733  0.68481100  0.25250300  1.0
  Ni  Ni579  1  0.53667067  0.01814433  0.25250300  1.0
  Ni  Ni580  1  0.53667067  0.35147767  0.25250300  1.0
  Ni  Ni581  1  0.53667067  0.68481100  0.25250300  1.0
  Ni  Ni582  1  0.87000400  0.01814433  0.25250300  1.0
  Ni  Ni583  1  0.87000400  0.35147767  0.25250300  1.0
  Ni  Ni584  1  0.87000400  0.68481100  0.25250300  1.0
  Ni  Ni585  1  0.20333733  0.18481100  0.35250300  1.0
  Ni  Ni586  1  0.20333733  0.51814433  0.35250300  1.0
  Ni  Ni587  1  0.20333733  0.85147767  0.35250300  1.0
  Ni  Ni588  1  0.53667067  0.18481100  0.35250300  1.0
  Ni  Ni589  1  0.53667067  0.51814433  0.35250300  1.0
  Ni  Ni590  1  0.53667067  0.85147767  0.35250300  1.0
  Ni  Ni591  1  0.87000400  0.18481100  0.35250300  1.0
  Ni  Ni592  1  0.87000400  0.51814433  0.35250300  1.0
  Ni  Ni593  1  0.87000400  0.85147767  0.35250300  1.0
  Ni  Ni594  1  0.16666667  0.08333333  0.34761160  1.0
  Ni  Ni595  1  0.16666667  0.41666667  0.34761160  1.0
  Ni  Ni596  1  0.16666667  0.75000000  0.34761160  1.0
  Ni  Ni597  1  0.50000000  0.08333333  0.34761160  1.0
  Ni  Ni598  1  0.50000000  0.41666667  0.34761160  1.0
  Ni  Ni599  1  0.50000000  0.75000000  0.34761160  1.0
  Ni  Ni600  1  0.83333333  0.08333333  0.34761160  1.0
  Ni  Ni601  1  0.83333333  0.41666667  0.34761160  1.0
  Ni  Ni602  1  0.83333333  0.75000000  0.34761160  1.0
  Ni  Ni603  1  0.16666667  0.25000000  0.24761160  1.0
  Ni  Ni604  1  0.16666667  0.58333333  0.24761160  1.0
  Ni  Ni605  1  0.16666667  0.91666667  0.24761160  1.0
  Ni  Ni606  1  0.50000000  0.25000000  0.24761160  1.0
  Ni  Ni607  1  0.50000000  0.58333333  0.24761160  1.0
  Ni  Ni608  1  0.50000000  0.91666667  0.24761160  1.0
  Ni  Ni609  1  0.83333333  0.25000000  0.24761160  1.0
  Ni  Ni610  1  0.83333333  0.58333333  0.24761160  1.0
  Ni  Ni611  1  0.83333333  0.91666667  0.24761160  1.0
  Ni  Ni612  1  0.00000000  0.08333333  0.34761160  1.0
  Ni  Ni613  1  0.00000000  0.41666667  0.34761160  1.0
  Ni  Ni614  1  0.00000000  0.75000000  0.34761160  1.0
  Ni  Ni615  1  0.33333333  0.08333333  0.34761160  1.0
  Ni  Ni616  1  0.33333333  0.41666667  0.34761160  1.0
  Ni  Ni617  1  0.33333333  0.75000000  0.34761160  1.0
  Ni  Ni618  1  0.66666667  0.08333333  0.34761160  1.0
  Ni  Ni619  1  0.66666667  0.41666667  0.34761160  1.0
  Ni  Ni620  1  0.66666667  0.75000000  0.34761160  1.0
  Ni  Ni621  1  0.00000000  0.25000000  0.24761160  1.0
  Ni  Ni622  1  0.00000000  0.58333333  0.24761160  1.0
  Ni  Ni623  1  1.00000000  0.91666667  0.24761160  1.0
  Ni  Ni624  1  0.33333333  0.25000000  0.24761160  1.0
  Ni  Ni625  1  0.33333333  0.58333333  0.24761160  1.0
  Ni  Ni626  1  0.33333333  0.91666667  0.24761160  1.0
  Ni  Ni627  1  0.66666667  0.25000000  0.24761160  1.0
  Ni  Ni628  1  0.66666667  0.58333333  0.24761160  1.0
  Ni  Ni629  1  0.66666667  0.91666667  0.24761160  1.0
  Ni  Ni630  1  0.12999600  0.14852233  0.24272020  1.0
  Ni  Ni631  1  0.12999600  0.48185567  0.24272020  1.0
  Ni  Ni632  1  0.12999600  0.81518900  0.24272020  1.0
  Ni  Ni633  1  0.46332933  0.14852233  0.24272020  1.0
  Ni  Ni634  1  0.46332933  0.48185567  0.24272020  1.0
  Ni  Ni635  1  0.46332933  0.81518900  0.24272020  1.0
  Ni  Ni636  1  0.79666267  0.14852233  0.24272020  1.0
  Ni  Ni637  1  0.79666267  0.48185567  0.24272020  1.0
  Ni  Ni638  1  0.79666267  0.81518900  0.24272020  1.0
  Ni  Ni639  1  0.12999600  0.31518900  0.34272020  1.0
  Ni  Ni640  1  0.12999600  0.64852233  0.34272020  1.0
  Ni  Ni641  1  0.12999600  0.98185567  0.34272020  1.0
  Ni  Ni642  1  0.46332933  0.31518900  0.34272020  1.0
  Ni  Ni643  1  0.46332933  0.64852233  0.34272020  1.0
  Ni  Ni644  1  0.46332933  0.98185567  0.34272020  1.0
  Ni  Ni645  1  0.79666267  0.31518900  0.34272020  1.0
  Ni  Ni646  1  0.79666267  0.64852233  0.34272020  1.0
  Ni  Ni647  1  0.79666267  0.98185567  0.34272020  1.0
