# generated using pymatgen
data_Y2Ni7
_symmetry_space_group_name_H-M   'P 1'
_cell_length_a   14.81365210
_cell_length_b   14.81365210
_cell_length_c   37.10595975
_cell_angle_alpha   78.48568004
_cell_angle_beta   90.00000000
_cell_angle_gamma   60.00000000
_symmetry_Int_Tables_number   1
_chemical_formula_structural   Y2Ni7
_chemical_formula_sum   'Y36 Ni126'
_cell_volume   6861.90084142
_cell_formula_units_Z   18
loop_
 _symmetry_equiv_pos_site_id
 _symmetry_equiv_pos_as_xyz
  1  'x, y, z'
loop_
 _atom_site_type_symbol
 _atom_site_label
 _atom_site_symmetry_multiplicity
 _atom_site_fract_x
 _atom_site_fract_y
 _atom_site_fract_z
 _atom_site_occupancy
  Y  Y0  1  0.01681200  0.29970933  0.02521800  1.0
  Y  Y1  1  0.01681200  0.63304267  0.02521800  1.0
  Y  Y2  1  0.01681200  0.96637600  0.02521800  1.0
  Y  Y3  1  0.35014533  0.29970933  0.02521800  1.0
  Y  Y4  1  0.35014533  0.63304267  0.02521800  1.0
  Y  Y5  1  0.35014533  0.96637600  0.02521800  1.0
  Y  Y6  1  0.68347867  0.29970933  0.02521800  1.0
  Y  Y7  1  0.68347867  0.63304267  0.02521800  1.0
  Y  Y8  1  0.68347867  0.96637600  0.02521800  1.0
  Y  Y9  1  0.28427933  0.09810800  0.16095333  1.0
  Y  Y10  1  0.28427933  0.43144133  0.16095333  1.0
  Y  Y11  1  0.28427933  0.76477467  0.16095333  1.0
  Y  Y12  1  0.61761267  0.09810800  0.16095333  1.0
  Y  Y13  1  0.61761267  0.43144133  0.16095333  1.0
  Y  Y14  1  0.61761267  0.76477467  0.16095333  1.0
  Y  Y15  1  0.95094600  0.09810800  0.16095333  1.0
  Y  Y16  1  0.95094600  0.43144133  0.16095333  1.0
  Y  Y17  1  0.95094600  0.76477467  0.16095333  1.0
  Y  Y18  1  0.31652133  0.03362400  0.25767933  1.0
  Y  Y19  1  0.31652133  0.36695733  0.25767933  1.0
  Y  Y20  1  0.31652133  0.70029067  0.25767933  1.0
  Y  Y21  1  0.64985467  0.03362400  0.25767933  1.0
  Y  Y22  1  0.64985467  0.36695733  0.25767933  1.0
  Y  Y23  1  0.64985467  0.70029067  0.25767933  1.0
  Y  Y24  1  0.98318800  0.03362400  0.25767933  1.0
  Y  Y25  1  0.98318800  0.36695733  0.25767933  1.0
  Y  Y26  1  0.98318800  0.70029067  0.25767933  1.0
  Y  Y27  1  0.04905400  0.23522533  0.12194400  1.0
  Y  Y28  1  0.04905400  0.56855867  0.12194400  1.0
  Y  Y29  1  0.04905400  0.90189200  0.12194400  1.0
  Y  Y30  1  0.38238733  0.23522533  0.12194400  1.0
  Y  Y31  1  0.38238733  0.56855867  0.12194400  1.0
  Y  Y32  1  0.38238733  0.90189200  0.12194400  1.0
  Y  Y33  1  0.71572067  0.23522533  0.12194400  1.0
  Y  Y34  1  0.71572067  0.56855867  0.12194400  1.0
  Y  Y35  1  0.71572067  0.90189200  0.12194400  1.0
  Ni  Ni36  1  0.09272700  0.14787933  0.25296300  1.0
  Ni  Ni37  1  0.09272700  0.48121267  0.25296300  1.0
  Ni  Ni38  1  0.09272700  0.81454600  0.25296300  1.0
  Ni  Ni39  1  0.42606033  0.14787933  0.25296300  1.0
  Ni  Ni40  1  0.42606033  0.48121267  0.25296300  1.0
  Ni  Ni41  1  0.42606033  0.81454600  0.25296300  1.0
  Ni  Ni42  1  0.75939367  0.14787933  0.25296300  1.0
  Ni  Ni43  1  0.75939367  0.48121267  0.25296300  1.0
  Ni  Ni44  1  0.75939367  0.81454600  0.25296300  1.0
  Ni  Ni45  1  0.20391167  0.25884333  0.25318367  1.0
  Ni  Ni46  1  0.20391167  0.59217667  0.25318367  1.0
  Ni  Ni47  1  0.20391167  0.92551000  0.25318367  1.0
  Ni  Ni48  1  0.53724500  0.25884333  0.25318367  1.0
  Ni  Ni49  1  0.53724500  0.59217667  0.25318367  1.0
  Ni  Ni50  1  0.53724500  0.92551000  0.25318367  1.0
  Ni  Ni51  1  0.87057833  0.25884333  0.25318367  1.0
  Ni  Ni52  1  0.87057833  0.59217667  0.25318367  1.0
  Ni  Ni53  1  0.87057833  0.92551000  0.25318367  1.0
  Ni  Ni54  1  0.20333733  0.09370733  0.08441200  1.0
  Ni  Ni55  1  0.20333733  0.42704067  0.08441200  1.0
  Ni  Ni56  1  0.20333733  0.76037400  0.08441200  1.0
  Ni  Ni57  1  0.53667067  0.09370733  0.08441200  1.0
  Ni  Ni58  1  0.53667067  0.42704067  0.08441200  1.0
  Ni  Ni59  1  0.53667067  0.76037400  0.08441200  1.0
  Ni  Ni60  1  0.87000400  0.09370733  0.08441200  1.0
  Ni  Ni61  1  0.87000400  0.42704067  0.08441200  1.0
  Ni  Ni62  1  0.87000400  0.76037400  0.08441200  1.0
  Ni  Ni63  1  0.12942167  0.07449000  0.02971367  1.0
  Ni  Ni64  1  0.12942167  0.40782333  0.02971367  1.0
  Ni  Ni65  1  0.12942167  0.74115667  0.02971367  1.0
  Ni  Ni66  1  0.46275500  0.07449000  0.02971367  1.0
  Ni  Ni67  1  0.46275500  0.40782333  0.02971367  1.0
  Ni  Ni68  1  0.46275500  0.74115667  0.02971367  1.0
  Ni  Ni69  1  0.79608833  0.07449000  0.02971367  1.0
  Ni  Ni70  1  0.79608833  0.40782333  0.02971367  1.0
  Ni  Ni71  1  0.79608833  0.74115667  0.02971367  1.0
  Ni  Ni72  1  0.16666667  0.00000000  0.30811533  1.0
  Ni  Ni73  1  0.16666667  0.33333333  0.30811533  1.0
  Ni  Ni74  1  0.16666667  0.66666667  0.30811533  1.0
  Ni  Ni75  1  0.50000000  0.00000000  0.30811533  1.0
  Ni  Ni76  1  0.50000000  0.33333333  0.30811533  1.0
  Ni  Ni77  1  0.50000000  0.66666667  0.30811533  1.0
  Ni  Ni78  1  0.83333333  0.00000000  0.30811533  1.0
  Ni  Ni79  1  0.83333333  0.33333333  0.30811533  1.0
  Ni  Ni80  1  0.83333333  0.66666667  0.30811533  1.0
  Ni  Ni81  1  0.29704467  0.23962600  0.19848533  1.0
  Ni  Ni82  1  0.29704467  0.57295933  0.19848533  1.0
  Ni  Ni83  1  0.29704467  0.90629267  0.19848533  1.0
  Ni  Ni84  1  0.63037800  0.23962600  0.19848533  1.0
  Ni  Ni85  1  0.63037800  0.57295933  0.19848533  1.0
  Ni  Ni86  1  0.63037800  0.90629267  0.19848533  1.0
  Ni  Ni87  1  0.96371133  0.23962600  0.19848533  1.0
  Ni  Ni88  1  0.96371133  0.57295933  0.19848533  1.0
  Ni  Ni89  1  0.96371133  0.90629267  0.19848533  1.0
  Ni  Ni90  1  0.16666667  0.00000000  0.14144867  1.0
  Ni  Ni91  1  0.16666667  0.33333333  0.14144867  1.0
  Ni  Ni92  1  0.16666667  0.66666667  0.14144867  1.0
  Ni  Ni93  1  0.50000000  0.00000000  0.14144867  1.0
  Ni  Ni94  1  0.50000000  0.33333333  0.14144867  1.0
  Ni  Ni95  1  0.50000000  0.66666667  0.14144867  1.0
  Ni  Ni96  1  0.83333333  0.00000000  0.14144867  1.0
  Ni  Ni97  1  0.83333333  0.33333333  0.14144867  1.0
  Ni  Ni98  1  0.83333333  0.66666667  0.14144867  1.0
  Ni  Ni99  1  0.03628867  0.09370733  0.08441200  1.0
  Ni  Ni100  1  0.03628867  0.42704067  0.08441200  1.0
  Ni  Ni101  1  0.03628867  0.76037400  0.08441200  1.0
  Ni  Ni102  1  0.36962200  0.09370733  0.08441200  1.0
  Ni  Ni103  1  0.36962200  0.42704067  0.08441200  1.0
  Ni  Ni104  1  0.36962200  0.76037400  0.08441200  1.0
  Ni  Ni105  1  0.70295533  0.09370733  0.08441200  1.0
  Ni  Ni106  1  0.70295533  0.42704067  0.08441200  1.0
  Ni  Ni107  1  0.70295533  0.76037400  0.08441200  1.0
  Ni  Ni108  1  0.24060633  0.18545400  0.02993433  1.0
  Ni  Ni109  1  0.24060633  0.51878733  0.02993433  1.0
  Ni  Ni110  1  0.24060633  0.85212067  0.02993433  1.0
  Ni  Ni111  1  0.57393967  0.18545400  0.02993433  1.0
  Ni  Ni112  1  0.57393967  0.51878733  0.02993433  1.0
  Ni  Ni113  1  0.57393967  0.85212067  0.02993433  1.0
  Ni  Ni114  1  0.90727300  0.18545400  0.02993433  1.0
  Ni  Ni115  1  0.90727300  0.51878733  0.02993433  1.0
  Ni  Ni116  1  0.90727300  0.85212067  0.02993433  1.0
  Ni  Ni117  1  0.12999600  0.23962600  0.19848533  1.0
  Ni  Ni118  1  0.12999600  0.57295933  0.19848533  1.0
  Ni  Ni119  1  0.12999600  0.90629267  0.19848533  1.0
  Ni  Ni120  1  0.46332933  0.23962600  0.19848533  1.0
  Ni  Ni121  1  0.46332933  0.57295933  0.19848533  1.0
  Ni  Ni122  1  0.46332933  0.90629267  0.19848533  1.0
  Ni  Ni123  1  0.79666267  0.23962600  0.19848533  1.0
  Ni  Ni124  1  0.79666267  0.57295933  0.19848533  1.0
  Ni  Ni125  1  0.79666267  0.90629267  0.19848533  1.0
  Ni  Ni126  1  0.20333733  0.25999200  0.08441200  1.0
  Ni  Ni127  1  0.20333733  0.59332533  0.08441200  1.0
  Ni  Ni128  1  0.20333733  0.92665867  0.08441200  1.0
  Ni  Ni129  1  0.53667067  0.25999200  0.08441200  1.0
  Ni  Ni130  1  0.53667067  0.59332533  0.08441200  1.0
  Ni  Ni131  1  0.53667067  0.92665867  0.08441200  1.0
  Ni  Ni132  1  0.87000400  0.25999200  0.08441200  1.0
  Ni  Ni133  1  0.87000400  0.59332533  0.08441200  1.0
  Ni  Ni134  1  0.87000400  0.92665867  0.08441200  1.0
  Ni  Ni135  1  0.16666667  0.16666667  0.30811533  1.0
  Ni  Ni136  1  0.16666667  0.50000000  0.30811533  1.0
  Ni  Ni137  1  0.16666667  0.83333333  0.30811533  1.0
  Ni  Ni138  1  0.50000000  0.16666667  0.30811533  1.0
  Ni  Ni139  1  0.50000000  0.50000000  0.30811533  1.0
  Ni  Ni140  1  0.50000000  0.83333333  0.30811533  1.0
  Ni  Ni141  1  0.83333333  0.16666667  0.30811533  1.0
  Ni  Ni142  1  0.83333333  0.50000000  0.30811533  1.0
  Ni  Ni143  1  0.83333333  0.83333333  0.30811533  1.0
  Ni  Ni144  1  0.00000000  0.16666667  0.30811533  1.0
  Ni  Ni145  1  0.00000000  0.50000000  0.30811533  1.0
  Ni  Ni146  1  0.00000000  0.83333333  0.30811533  1.0
  Ni  Ni147  1  0.33333333  0.16666667  0.30811533  1.0
  Ni  Ni148  1  0.33333333  0.50000000  0.30811533  1.0
  Ni  Ni149  1  0.33333333  0.83333333  0.30811533  1.0
  Ni  Ni150  1  0.66666667  0.16666667  0.30811533  1.0
  Ni  Ni151  1  0.66666667  0.50000000  0.30811533  1.0
  Ni  Ni152  1  0.66666667  0.83333333  0.30811533  1.0
  Ni  Ni153  1  0.12999600  0.07334133  0.19848533  1.0
  Ni  Ni154  1  0.12999600  0.40667467  0.19848533  1.0
  Ni  Ni155  1  0.12999600  0.74000800  0.19848533  1.0
  Ni  Ni156  1  0.46332933  0.07334133  0.19848533  1.0
  Ni  Ni157  1  0.46332933  0.40667467  0.19848533  1.0
  Ni  Ni158  1  0.46332933  0.74000800  0.19848533  1.0
  Ni  Ni159  1  0.79666267  0.07334133  0.19848533  1.0
  Ni  Ni160  1  0.79666267  0.40667467  0.19848533  1.0
  Ni  Ni161  1  0.79666267  0.74000800  0.19848533  1.0
