# generated using pymatgen
data_Y3Ni
_symmetry_space_group_name_H-M   'P 1'
_cell_length_a   19.10021700
_cell_length_b   50.44946856
_cell_length_c   38.81503600
_cell_angle_alpha   54.75749710
_cell_angle_beta   90.00000000
_cell_angle_gamma   90.00000000
_symmetry_Int_Tables_number   1
_chemical_formula_structural   Y3Ni
_chemical_formula_sum   'Y432 Ni144'
_cell_volume   30546.85627811
_cell_formula_units_Z   144
loop_
 _symmetry_equiv_pos_site_id
 _symmetry_equiv_pos_as_xyz
  1  'x, y, z'
loop_
 _atom_site_type_symbol
 _atom_site_label
 _atom_site_symmetry_multiplicity
 _atom_site_fract_x
 _atom_site_fract_y
 _atom_site_fract_z
 _atom_site_occupancy
  Y  Y0  1  0.22628000  0.11326867  0.14819425  1.0
  Y  Y1  1  0.22628000  0.44660200  0.14819425  1.0
  Y  Y2  1  0.22628000  0.77993533  0.14819425  1.0
  Y  Y3  1  0.55961333  0.11326867  0.14819425  1.0
  Y  Y4  1  0.55961333  0.44660200  0.14819425  1.0
  Y  Y5  1  0.55961333  0.77993533  0.14819425  1.0
  Y  Y6  1  0.89294667  0.11326867  0.14819425  1.0
  Y  Y7  1  0.89294667  0.44660200  0.14819425  1.0
  Y  Y8  1  0.89294667  0.77993533  0.14819425  1.0
  Y  Y9  1  0.22628000  0.27993533  0.02319425  1.0
  Y  Y10  1  0.22628000  0.61326867  0.02319425  1.0
  Y  Y11  1  0.22628000  0.94660200  0.02319425  1.0
  Y  Y12  1  0.55961333  0.27993533  0.02319425  1.0
  Y  Y13  1  0.55961333  0.61326867  0.02319425  1.0
  Y  Y14  1  0.55961333  0.94660200  0.02319425  1.0
  Y  Y15  1  0.89294667  0.27993533  0.02319425  1.0
  Y  Y16  1  0.89294667  0.61326867  0.02319425  1.0
  Y  Y17  1  0.89294667  0.94660200  0.02319425  1.0
  Y  Y18  1  0.27372000  0.02993533  0.11940275  1.0
  Y  Y19  1  0.27372000  0.36326867  0.11940275  1.0
  Y  Y20  1  0.27372000  0.69660200  0.11940275  1.0
  Y  Y21  1  0.60705333  0.02993533  0.11940275  1.0
  Y  Y22  1  0.60705333  0.36326867  0.11940275  1.0
  Y  Y23  1  0.60705333  0.69660200  0.11940275  1.0
  Y  Y24  1  0.94038667  0.02993533  0.11940275  1.0
  Y  Y25  1  0.94038667  0.36326867  0.11940275  1.0
  Y  Y26  1  0.94038667  0.69660200  0.11940275  1.0
  Y  Y27  1  0.27372000  0.19660200  0.24440275  1.0
  Y  Y28  1  0.27372000  0.52993533  0.24440275  1.0
  Y  Y29  1  0.27372000  0.86326867  0.24440275  1.0
  Y  Y30  1  0.60705333  0.19660200  0.24440275  1.0
  Y  Y31  1  0.60705333  0.52993533  0.24440275  1.0
  Y  Y32  1  0.60705333  0.86326867  0.24440275  1.0
  Y  Y33  1  0.94038667  0.19660200  0.24440275  1.0
  Y  Y34  1  0.94038667  0.52993533  0.24440275  1.0
  Y  Y35  1  0.94038667  0.86326867  0.24440275  1.0
  Y  Y36  1  0.10705333  0.05339800  0.06809725  1.0
  Y  Y37  1  0.10705333  0.38673133  0.06809725  1.0
  Y  Y38  1  0.10705333  0.72006467  0.06809725  1.0
  Y  Y39  1  0.44038667  0.05339800  0.06809725  1.0
  Y  Y40  1  0.44038667  0.38673133  0.06809725  1.0
  Y  Y41  1  0.44038667  0.72006467  0.06809725  1.0
  Y  Y42  1  0.77372000  0.05339800  0.06809725  1.0
  Y  Y43  1  0.77372000  0.38673133  0.06809725  1.0
  Y  Y44  1  0.77372000  0.72006467  0.06809725  1.0
  Y  Y45  1  0.10705333  0.22006467  0.19309725  1.0
  Y  Y46  1  0.10705333  0.55339800  0.19309725  1.0
  Y  Y47  1  0.10705333  0.88673133  0.19309725  1.0
  Y  Y48  1  0.44038667  0.22006467  0.19309725  1.0
  Y  Y49  1  0.44038667  0.55339800  0.19309725  1.0
  Y  Y50  1  0.44038667  0.88673133  0.19309725  1.0
  Y  Y51  1  0.77372000  0.22006467  0.19309725  1.0
  Y  Y52  1  0.77372000  0.55339800  0.19309725  1.0
  Y  Y53  1  0.77372000  0.88673133  0.19309725  1.0
  Y  Y54  1  0.05961333  0.13673133  0.16430575  1.0
  Y  Y55  1  0.05961333  0.47006467  0.16430575  1.0
  Y  Y56  1  0.05961333  0.80339800  0.16430575  1.0
  Y  Y57  1  0.39294667  0.13673133  0.16430575  1.0
  Y  Y58  1  0.39294667  0.47006467  0.16430575  1.0
  Y  Y59  1  0.39294667  0.80339800  0.16430575  1.0
  Y  Y60  1  0.72628000  0.13673133  0.16430575  1.0
  Y  Y61  1  0.72628000  0.47006467  0.16430575  1.0
  Y  Y62  1  0.72628000  0.80339800  0.16430575  1.0
  Y  Y63  1  0.05961333  0.30339800  0.03930575  1.0
  Y  Y64  1  0.05961333  0.63673133  0.03930575  1.0
  Y  Y65  1  0.05961333  0.97006467  0.03930575  1.0
  Y  Y66  1  0.39294667  0.30339800  0.03930575  1.0
  Y  Y67  1  0.39294667  0.63673133  0.03930575  1.0
  Y  Y68  1  0.39294667  0.97006467  0.03930575  1.0
  Y  Y69  1  0.72628000  0.30339800  0.03930575  1.0
  Y  Y70  1  0.72628000  0.63673133  0.03930575  1.0
  Y  Y71  1  0.72628000  0.97006467  0.03930575  1.0
  Y  Y72  1  0.10705333  0.05339800  0.22680575  1.0
  Y  Y73  1  0.10705333  0.38673133  0.22680575  1.0
  Y  Y74  1  0.10705333  0.72006467  0.22680575  1.0
  Y  Y75  1  0.44038667  0.05339800  0.22680575  1.0
  Y  Y76  1  0.44038667  0.38673133  0.22680575  1.0
  Y  Y77  1  0.44038667  0.72006467  0.22680575  1.0
  Y  Y78  1  0.77372000  0.05339800  0.22680575  1.0
  Y  Y79  1  0.77372000  0.38673133  0.22680575  1.0
  Y  Y80  1  0.77372000  0.72006467  0.22680575  1.0
  Y  Y81  1  0.10705333  0.22006467  0.10180575  1.0
  Y  Y82  1  0.10705333  0.55339800  0.10180575  1.0
  Y  Y83  1  0.10705333  0.88673133  0.10180575  1.0
  Y  Y84  1  0.44038667  0.22006467  0.10180575  1.0
  Y  Y85  1  0.44038667  0.55339800  0.10180575  1.0
  Y  Y86  1  0.44038667  0.88673133  0.10180575  1.0
  Y  Y87  1  0.77372000  0.22006467  0.10180575  1.0
  Y  Y88  1  0.77372000  0.55339800  0.10180575  1.0
  Y  Y89  1  0.77372000  0.88673133  0.10180575  1.0
  Y  Y90  1  0.05961333  0.13673133  0.00559725  1.0
  Y  Y91  1  0.05961333  0.47006467  0.00559725  1.0
  Y  Y92  1  0.05961333  0.80339800  0.00559725  1.0
  Y  Y93  1  0.39294667  0.13673133  0.00559725  1.0
  Y  Y94  1  0.39294667  0.47006467  0.00559725  1.0
  Y  Y95  1  0.39294667  0.80339800  0.00559725  1.0
  Y  Y96  1  0.72628000  0.13673133  0.00559725  1.0
  Y  Y97  1  0.72628000  0.47006467  0.00559725  1.0
  Y  Y98  1  0.72628000  0.80339800  0.00559725  1.0
  Y  Y99  1  0.05961333  0.30339800  0.13059725  1.0
  Y  Y100  1  0.05961333  0.63673133  0.13059725  1.0
  Y  Y101  1  0.05961333  0.97006467  0.13059725  1.0
  Y  Y102  1  0.39294667  0.30339800  0.13059725  1.0
  Y  Y103  1  0.39294667  0.63673133  0.13059725  1.0
  Y  Y104  1  0.39294667  0.97006467  0.13059725  1.0
  Y  Y105  1  0.72628000  0.30339800  0.13059725  1.0
  Y  Y106  1  0.72628000  0.63673133  0.13059725  1.0
  Y  Y107  1  0.72628000  0.97006467  0.13059725  1.0
  Y  Y108  1  0.22628000  0.11326867  0.05690275  1.0
  Y  Y109  1  0.22628000  0.44660200  0.05690275  1.0
  Y  Y110  1  0.22628000  0.77993533  0.05690275  1.0
  Y  Y111  1  0.55961333  0.11326867  0.05690275  1.0
  Y  Y112  1  0.55961333  0.44660200  0.05690275  1.0
  Y  Y113  1  0.55961333  0.77993533  0.05690275  1.0
  Y  Y114  1  0.89294667  0.11326867  0.05690275  1.0
  Y  Y115  1  0.89294667  0.44660200  0.05690275  1.0
  Y  Y116  1  0.89294667  0.77993533  0.05690275  1.0
  Y  Y117  1  0.22628000  0.27993533  0.18190275  1.0
  Y  Y118  1  0.22628000  0.61326867  0.18190275  1.0
  Y  Y119  1  0.22628000  0.94660200  0.18190275  1.0
  Y  Y120  1  0.55961333  0.27993533  0.18190275  1.0
  Y  Y121  1  0.55961333  0.61326867  0.18190275  1.0
  Y  Y122  1  0.55961333  0.94660200  0.18190275  1.0
  Y  Y123  1  0.89294667  0.27993533  0.18190275  1.0
  Y  Y124  1  0.89294667  0.61326867  0.18190275  1.0
  Y  Y125  1  0.89294667  0.94660200  0.18190275  1.0
  Y  Y126  1  0.27372000  0.02993533  0.21069425  1.0
  Y  Y127  1  0.27372000  0.36326867  0.21069425  1.0
  Y  Y128  1  0.27372000  0.69660200  0.21069425  1.0
  Y  Y129  1  0.60705333  0.02993533  0.21069425  1.0
  Y  Y130  1  0.60705333  0.36326867  0.21069425  1.0
  Y  Y131  1  0.60705333  0.69660200  0.21069425  1.0
  Y  Y132  1  0.94038667  0.02993533  0.21069425  1.0
  Y  Y133  1  0.94038667  0.36326867  0.21069425  1.0
  Y  Y134  1  0.94038667  0.69660200  0.21069425  1.0
  Y  Y135  1  0.27372000  0.19660200  0.08569425  1.0
  Y  Y136  1  0.27372000  0.52993533  0.08569425  1.0
  Y  Y137  1  0.27372000  0.86326867  0.08569425  1.0
  Y  Y138  1  0.60705333  0.19660200  0.08569425  1.0
  Y  Y139  1  0.60705333  0.52993533  0.08569425  1.0
  Y  Y140  1  0.60705333  0.86326867  0.08569425  1.0
  Y  Y141  1  0.94038667  0.19660200  0.08569425  1.0
  Y  Y142  1  0.94038667  0.52993533  0.08569425  1.0
  Y  Y143  1  0.94038667  0.86326867  0.08569425  1.0
  Y  Y144  1  0.04868433  0.08926100  0.12055425  1.0
  Y  Y145  1  0.04868433  0.42259433  0.12055425  1.0
  Y  Y146  1  0.04868433  0.75592767  0.12055425  1.0
  Y  Y147  1  0.38201767  0.08926100  0.12055425  1.0
  Y  Y148  1  0.38201767  0.42259433  0.12055425  1.0
  Y  Y149  1  0.38201767  0.75592767  0.12055425  1.0
  Y  Y150  1  0.71535100  0.08926100  0.12055425  1.0
  Y  Y151  1  0.71535100  0.42259433  0.12055425  1.0
  Y  Y152  1  0.71535100  0.75592767  0.12055425  1.0
  Y  Y153  1  0.04868433  0.25592767  0.24555425  1.0
  Y  Y154  1  0.04868433  0.58926100  0.24555425  1.0
  Y  Y155  1  0.04868433  0.92259433  0.24555425  1.0
  Y  Y156  1  0.38201767  0.25592767  0.24555425  1.0
  Y  Y157  1  0.38201767  0.58926100  0.24555425  1.0
  Y  Y158  1  0.38201767  0.92259433  0.24555425  1.0
  Y  Y159  1  0.71535100  0.25592767  0.24555425  1.0
  Y  Y160  1  0.71535100  0.58926100  0.24555425  1.0
  Y  Y161  1  0.71535100  0.92259433  0.24555425  1.0
  Y  Y162  1  0.11798233  0.00592767  0.18305425  1.0
  Y  Y163  1  0.11798233  0.33926100  0.18305425  1.0
  Y  Y164  1  0.11798233  0.67259433  0.18305425  1.0
  Y  Y165  1  0.45131567  0.00592767  0.18305425  1.0
  Y  Y166  1  0.45131567  0.33926100  0.18305425  1.0
  Y  Y167  1  0.45131567  0.67259433  0.18305425  1.0
  Y  Y168  1  0.78464900  0.00592767  0.18305425  1.0
  Y  Y169  1  0.78464900  0.33926100  0.18305425  1.0
  Y  Y170  1  0.78464900  0.67259433  0.18305425  1.0
  Y  Y171  1  0.11798233  0.17259433  0.05805425  1.0
  Y  Y172  1  0.11798233  0.50592767  0.05805425  1.0
  Y  Y173  1  0.11798233  0.83926100  0.05805425  1.0
  Y  Y174  1  0.45131567  0.17259433  0.05805425  1.0
  Y  Y175  1  0.45131567  0.50592767  0.05805425  1.0
  Y  Y176  1  0.45131567  0.83926100  0.05805425  1.0
  Y  Y177  1  0.78464900  0.17259433  0.05805425  1.0
  Y  Y178  1  0.78464900  0.50592767  0.05805425  1.0
  Y  Y179  1  0.78464900  0.83926100  0.05805425  1.0
  Y  Y180  1  0.28464900  0.07740567  0.00444575  1.0
  Y  Y181  1  0.28464900  0.41073900  0.00444575  1.0
  Y  Y182  1  0.28464900  0.74407233  0.00444575  1.0
  Y  Y183  1  0.61798233  0.07740567  0.00444575  1.0
  Y  Y184  1  0.61798233  0.41073900  0.00444575  1.0
  Y  Y185  1  0.61798233  0.74407233  0.00444575  1.0
  Y  Y186  1  0.95131567  0.07740567  0.00444575  1.0
  Y  Y187  1  0.95131567  0.41073900  0.00444575  1.0
  Y  Y188  1  0.95131567  0.74407233  0.00444575  1.0
  Y  Y189  1  0.28464900  0.24407233  0.12944575  1.0
  Y  Y190  1  0.28464900  0.57740567  0.12944575  1.0
  Y  Y191  1  0.28464900  0.91073900  0.12944575  1.0
  Y  Y192  1  0.61798233  0.24407233  0.12944575  1.0
  Y  Y193  1  0.61798233  0.57740567  0.12944575  1.0
  Y  Y194  1  0.61798233  0.91073900  0.12944575  1.0
  Y  Y195  1  0.95131567  0.24407233  0.12944575  1.0
  Y  Y196  1  0.95131567  0.57740567  0.12944575  1.0
  Y  Y197  1  0.95131567  0.91073900  0.12944575  1.0
  Y  Y198  1  0.21535100  0.16073900  0.19194575  1.0
  Y  Y199  1  0.21535100  0.49407233  0.19194575  1.0
  Y  Y200  1  0.21535100  0.82740567  0.19194575  1.0
  Y  Y201  1  0.54868433  0.16073900  0.19194575  1.0
  Y  Y202  1  0.54868433  0.49407233  0.19194575  1.0
  Y  Y203  1  0.54868433  0.82740567  0.19194575  1.0
  Y  Y204  1  0.88201767  0.16073900  0.19194575  1.0
  Y  Y205  1  0.88201767  0.49407233  0.19194575  1.0
  Y  Y206  1  0.88201767  0.82740567  0.19194575  1.0
  Y  Y207  1  0.21535100  0.32740567  0.06694575  1.0
  Y  Y208  1  0.21535100  0.66073900  0.06694575  1.0
  Y  Y209  1  0.21535100  0.99407233  0.06694575  1.0
  Y  Y210  1  0.54868433  0.32740567  0.06694575  1.0
  Y  Y211  1  0.54868433  0.66073900  0.06694575  1.0
  Y  Y212  1  0.54868433  0.99407233  0.06694575  1.0
  Y  Y213  1  0.88201767  0.32740567  0.06694575  1.0
  Y  Y214  1  0.88201767  0.66073900  0.06694575  1.0
  Y  Y215  1  0.88201767  0.99407233  0.06694575  1.0
  Ni  Ni216  1  0.31433333  0.14826667  0.07630000  1.0
  Ni  Ni217  1  0.31433333  0.48160000  0.07630000  1.0
  Ni  Ni218  1  0.31433333  0.81493333  0.07630000  1.0
  Ni  Ni219  1  0.64766667  0.14826667  0.07630000  1.0
  Ni  Ni220  1  0.64766667  0.48160000  0.07630000  1.0
  Ni  Ni221  1  0.64766667  0.81493333  0.07630000  1.0
  Ni  Ni222  1  0.98100000  0.14826667  0.07630000  1.0
  Ni  Ni223  1  0.98100000  0.48160000  0.07630000  1.0
  Ni  Ni224  1  0.98100000  0.81493333  0.07630000  1.0
  Ni  Ni225  1  0.31433333  0.31493333  0.20130000  1.0
  Ni  Ni226  1  0.31433333  0.64826667  0.20130000  1.0
  Ni  Ni227  1  0.31433333  0.98160000  0.20130000  1.0
  Ni  Ni228  1  0.64766667  0.31493333  0.20130000  1.0
  Ni  Ni229  1  0.64766667  0.64826667  0.20130000  1.0
  Ni  Ni230  1  0.64766667  0.98160000  0.20130000  1.0
  Ni  Ni231  1  0.98100000  0.31493333  0.20130000  1.0
  Ni  Ni232  1  0.98100000  0.64826667  0.20130000  1.0
  Ni  Ni233  1  0.98100000  0.98160000  0.20130000  1.0
  Ni  Ni234  1  0.18566667  0.06493333  0.13880000  1.0
  Ni  Ni235  1  0.18566667  0.39826667  0.13880000  1.0
  Ni  Ni236  1  0.18566667  0.73160000  0.13880000  1.0
  Ni  Ni237  1  0.51900000  0.06493333  0.13880000  1.0
  Ni  Ni238  1  0.51900000  0.39826667  0.13880000  1.0
  Ni  Ni239  1  0.51900000  0.73160000  0.13880000  1.0
  Ni  Ni240  1  0.85233333  0.06493333  0.13880000  1.0
  Ni  Ni241  1  0.85233333  0.39826667  0.13880000  1.0
  Ni  Ni242  1  0.85233333  0.73160000  0.13880000  1.0
  Ni  Ni243  1  0.18566667  0.23160000  0.01380000  1.0
  Ni  Ni244  1  0.18566667  0.56493333  0.01380000  1.0
  Ni  Ni245  1  0.18566667  0.89826667  0.01380000  1.0
  Ni  Ni246  1  0.51900000  0.23160000  0.01380000  1.0
  Ni  Ni247  1  0.51900000  0.56493333  0.01380000  1.0
  Ni  Ni248  1  0.51900000  0.89826667  0.01380000  1.0
  Ni  Ni249  1  0.85233333  0.23160000  0.01380000  1.0
  Ni  Ni250  1  0.85233333  0.56493333  0.01380000  1.0
  Ni  Ni251  1  0.85233333  0.89826667  0.01380000  1.0
  Ni  Ni252  1  0.01900000  0.01840000  0.04870000  1.0
  Ni  Ni253  1  0.01900000  0.35173333  0.04870000  1.0
  Ni  Ni254  1  0.01900000  0.68506667  0.04870000  1.0
  Ni  Ni255  1  0.35233333  0.01840000  0.04870000  1.0
  Ni  Ni256  1  0.35233333  0.35173333  0.04870000  1.0
  Ni  Ni257  1  0.35233333  0.68506667  0.04870000  1.0
  Ni  Ni258  1  0.68566667  0.01840000  0.04870000  1.0
  Ni  Ni259  1  0.68566667  0.35173333  0.04870000  1.0
  Ni  Ni260  1  0.68566667  0.68506667  0.04870000  1.0
  Ni  Ni261  1  0.01900000  0.18506667  0.17370000  1.0
  Ni  Ni262  1  0.01900000  0.51840000  0.17370000  1.0
  Ni  Ni263  1  0.01900000  0.85173333  0.17370000  1.0
  Ni  Ni264  1  0.35233333  0.18506667  0.17370000  1.0
  Ni  Ni265  1  0.35233333  0.51840000  0.17370000  1.0
  Ni  Ni266  1  0.35233333  0.85173333  0.17370000  1.0
  Ni  Ni267  1  0.68566667  0.18506667  0.17370000  1.0
  Ni  Ni268  1  0.68566667  0.51840000  0.17370000  1.0
  Ni  Ni269  1  0.68566667  0.85173333  0.17370000  1.0
  Ni  Ni270  1  0.14766667  0.10173333  0.23620000  1.0
  Ni  Ni271  1  0.14766667  0.43506667  0.23620000  1.0
  Ni  Ni272  1  0.14766667  0.76840000  0.23620000  1.0
  Ni  Ni273  1  0.48100000  0.10173333  0.23620000  1.0
  Ni  Ni274  1  0.48100000  0.43506667  0.23620000  1.0
  Ni  Ni275  1  0.48100000  0.76840000  0.23620000  1.0
  Ni  Ni276  1  0.81433333  0.10173333  0.23620000  1.0
  Ni  Ni277  1  0.81433333  0.43506667  0.23620000  1.0
  Ni  Ni278  1  0.81433333  0.76840000  0.23620000  1.0
  Ni  Ni279  1  0.14766667  0.26840000  0.11120000  1.0
  Ni  Ni280  1  0.14766667  0.60173333  0.11120000  1.0
  Ni  Ni281  1  0.14766667  0.93506667  0.11120000  1.0
  Ni  Ni282  1  0.48100000  0.26840000  0.11120000  1.0
  Ni  Ni283  1  0.48100000  0.60173333  0.11120000  1.0
  Ni  Ni284  1  0.48100000  0.93506667  0.11120000  1.0
  Ni  Ni285  1  0.81433333  0.26840000  0.11120000  1.0
  Ni  Ni286  1  0.81433333  0.60173333  0.11120000  1.0
  Ni  Ni287  1  0.81433333  0.93506667  0.11120000  1.0
  Y  Y288  1  0.22628000  0.11326867  0.39819425  1.0
  Y  Y289  1  0.22628000  0.44660200  0.39819425  1.0
  Y  Y290  1  0.22628000  0.77993533  0.39819425  1.0
  Y  Y291  1  0.55961333  0.11326867  0.39819425  1.0
  Y  Y292  1  0.55961333  0.44660200  0.39819425  1.0
  Y  Y293  1  0.55961333  0.77993533  0.39819425  1.0
  Y  Y294  1  0.89294667  0.11326867  0.39819425  1.0
  Y  Y295  1  0.89294667  0.44660200  0.39819425  1.0
  Y  Y296  1  0.89294667  0.77993533  0.39819425  1.0
  Y  Y297  1  0.22628000  0.27993533  0.27319425  1.0
  Y  Y298  1  0.22628000  0.61326867  0.27319425  1.0
  Y  Y299  1  0.22628000  0.94660200  0.27319425  1.0
  Y  Y300  1  0.55961333  0.27993533  0.27319425  1.0
  Y  Y301  1  0.55961333  0.61326867  0.27319425  1.0
  Y  Y302  1  0.55961333  0.94660200  0.27319425  1.0
  Y  Y303  1  0.89294667  0.27993533  0.27319425  1.0
  Y  Y304  1  0.89294667  0.61326867  0.27319425  1.0
  Y  Y305  1  0.89294667  0.94660200  0.27319425  1.0
  Y  Y306  1  0.27372000  0.02993533  0.36940275  1.0
  Y  Y307  1  0.27372000  0.36326867  0.36940275  1.0
  Y  Y308  1  0.27372000  0.69660200  0.36940275  1.0
  Y  Y309  1  0.60705333  0.02993533  0.36940275  1.0
  Y  Y310  1  0.60705333  0.36326867  0.36940275  1.0
  Y  Y311  1  0.60705333  0.69660200  0.36940275  1.0
  Y  Y312  1  0.94038667  0.02993533  0.36940275  1.0
  Y  Y313  1  0.94038667  0.36326867  0.36940275  1.0
  Y  Y314  1  0.94038667  0.69660200  0.36940275  1.0
  Y  Y315  1  0.27372000  0.19660200  0.49440275  1.0
  Y  Y316  1  0.27372000  0.52993533  0.49440275  1.0
  Y  Y317  1  0.27372000  0.86326867  0.49440275  1.0
  Y  Y318  1  0.60705333  0.19660200  0.49440275  1.0
  Y  Y319  1  0.60705333  0.52993533  0.49440275  1.0
  Y  Y320  1  0.60705333  0.86326867  0.49440275  1.0
  Y  Y321  1  0.94038667  0.19660200  0.49440275  1.0
  Y  Y322  1  0.94038667  0.52993533  0.49440275  1.0
  Y  Y323  1  0.94038667  0.86326867  0.49440275  1.0
  Y  Y324  1  0.10705333  0.05339800  0.31809725  1.0
  Y  Y325  1  0.10705333  0.38673133  0.31809725  1.0
  Y  Y326  1  0.10705333  0.72006467  0.31809725  1.0
  Y  Y327  1  0.44038667  0.05339800  0.31809725  1.0
  Y  Y328  1  0.44038667  0.38673133  0.31809725  1.0
  Y  Y329  1  0.44038667  0.72006467  0.31809725  1.0
  Y  Y330  1  0.77372000  0.05339800  0.31809725  1.0
  Y  Y331  1  0.77372000  0.38673133  0.31809725  1.0
  Y  Y332  1  0.77372000  0.72006467  0.31809725  1.0
  Y  Y333  1  0.10705333  0.22006467  0.44309725  1.0
  Y  Y334  1  0.10705333  0.55339800  0.44309725  1.0
  Y  Y335  1  0.10705333  0.88673133  0.44309725  1.0
  Y  Y336  1  0.44038667  0.22006467  0.44309725  1.0
  Y  Y337  1  0.44038667  0.55339800  0.44309725  1.0
  Y  Y338  1  0.44038667  0.88673133  0.44309725  1.0
  Y  Y339  1  0.77372000  0.22006467  0.44309725  1.0
  Y  Y340  1  0.77372000  0.55339800  0.44309725  1.0
  Y  Y341  1  0.77372000  0.88673133  0.44309725  1.0
  Y  Y342  1  0.05961333  0.13673133  0.41430575  1.0
  Y  Y343  1  0.05961333  0.47006467  0.41430575  1.0
  Y  Y344  1  0.05961333  0.80339800  0.41430575  1.0
  Y  Y345  1  0.39294667  0.13673133  0.41430575  1.0
  Y  Y346  1  0.39294667  0.47006467  0.41430575  1.0
  Y  Y347  1  0.39294667  0.80339800  0.41430575  1.0
  Y  Y348  1  0.72628000  0.13673133  0.41430575  1.0
  Y  Y349  1  0.72628000  0.47006467  0.41430575  1.0
  Y  Y350  1  0.72628000  0.80339800  0.41430575  1.0
  Y  Y351  1  0.05961333  0.30339800  0.28930575  1.0
  Y  Y352  1  0.05961333  0.63673133  0.28930575  1.0
  Y  Y353  1  0.05961333  0.97006467  0.28930575  1.0
  Y  Y354  1  0.39294667  0.30339800  0.28930575  1.0
  Y  Y355  1  0.39294667  0.63673133  0.28930575  1.0
  Y  Y356  1  0.39294667  0.97006467  0.28930575  1.0
  Y  Y357  1  0.72628000  0.30339800  0.28930575  1.0
  Y  Y358  1  0.72628000  0.63673133  0.28930575  1.0
  Y  Y359  1  0.72628000  0.97006467  0.28930575  1.0
  Y  Y360  1  0.10705333  0.05339800  0.47680575  1.0
  Y  Y361  1  0.10705333  0.38673133  0.47680575  1.0
  Y  Y362  1  0.10705333  0.72006467  0.47680575  1.0
  Y  Y363  1  0.44038667  0.05339800  0.47680575  1.0
  Y  Y364  1  0.44038667  0.38673133  0.47680575  1.0
  Y  Y365  1  0.44038667  0.72006467  0.47680575  1.0
  Y  Y366  1  0.77372000  0.05339800  0.47680575  1.0
  Y  Y367  1  0.77372000  0.38673133  0.47680575  1.0
  Y  Y368  1  0.77372000  0.72006467  0.47680575  1.0
  Y  Y369  1  0.10705333  0.22006467  0.35180575  1.0
  Y  Y370  1  0.10705333  0.55339800  0.35180575  1.0
  Y  Y371  1  0.10705333  0.88673133  0.35180575  1.0
  Y  Y372  1  0.44038667  0.22006467  0.35180575  1.0
  Y  Y373  1  0.44038667  0.55339800  0.35180575  1.0
  Y  Y374  1  0.44038667  0.88673133  0.35180575  1.0
  Y  Y375  1  0.77372000  0.22006467  0.35180575  1.0
  Y  Y376  1  0.77372000  0.55339800  0.35180575  1.0
  Y  Y377  1  0.77372000  0.88673133  0.35180575  1.0
  Y  Y378  1  0.05961333  0.13673133  0.25559725  1.0
  Y  Y379  1  0.05961333  0.47006467  0.25559725  1.0
  Y  Y380  1  0.05961333  0.80339800  0.25559725  1.0
  Y  Y381  1  0.39294667  0.13673133  0.25559725  1.0
  Y  Y382  1  0.39294667  0.47006467  0.25559725  1.0
  Y  Y383  1  0.39294667  0.80339800  0.25559725  1.0
  Y  Y384  1  0.72628000  0.13673133  0.25559725  1.0
  Y  Y385  1  0.72628000  0.47006467  0.25559725  1.0
  Y  Y386  1  0.72628000  0.80339800  0.25559725  1.0
  Y  Y387  1  0.05961333  0.30339800  0.38059725  1.0
  Y  Y388  1  0.05961333  0.63673133  0.38059725  1.0
  Y  Y389  1  0.05961333  0.97006467  0.38059725  1.0
  Y  Y390  1  0.39294667  0.30339800  0.38059725  1.0
  Y  Y391  1  0.39294667  0.63673133  0.38059725  1.0
  Y  Y392  1  0.39294667  0.97006467  0.38059725  1.0
  Y  Y393  1  0.72628000  0.30339800  0.38059725  1.0
  Y  Y394  1  0.72628000  0.63673133  0.38059725  1.0
  Y  Y395  1  0.72628000  0.97006467  0.38059725  1.0
  Y  Y396  1  0.22628000  0.11326867  0.30690275  1.0
  Y  Y397  1  0.22628000  0.44660200  0.30690275  1.0
  Y  Y398  1  0.22628000  0.77993533  0.30690275  1.0
  Y  Y399  1  0.55961333  0.11326867  0.30690275  1.0
  Y  Y400  1  0.55961333  0.44660200  0.30690275  1.0
  Y  Y401  1  0.55961333  0.77993533  0.30690275  1.0
  Y  Y402  1  0.89294667  0.11326867  0.30690275  1.0
  Y  Y403  1  0.89294667  0.44660200  0.30690275  1.0
  Y  Y404  1  0.89294667  0.77993533  0.30690275  1.0
  Y  Y405  1  0.22628000  0.27993533  0.43190275  1.0
  Y  Y406  1  0.22628000  0.61326867  0.43190275  1.0
  Y  Y407  1  0.22628000  0.94660200  0.43190275  1.0
  Y  Y408  1  0.55961333  0.27993533  0.43190275  1.0
  Y  Y409  1  0.55961333  0.61326867  0.43190275  1.0
  Y  Y410  1  0.55961333  0.94660200  0.43190275  1.0
  Y  Y411  1  0.89294667  0.27993533  0.43190275  1.0
  Y  Y412  1  0.89294667  0.61326867  0.43190275  1.0
  Y  Y413  1  0.89294667  0.94660200  0.43190275  1.0
  Y  Y414  1  0.27372000  0.02993533  0.46069425  1.0
  Y  Y415  1  0.27372000  0.36326867  0.46069425  1.0
  Y  Y416  1  0.27372000  0.69660200  0.46069425  1.0
  Y  Y417  1  0.60705333  0.02993533  0.46069425  1.0
  Y  Y418  1  0.60705333  0.36326867  0.46069425  1.0
  Y  Y419  1  0.60705333  0.69660200  0.46069425  1.0
  Y  Y420  1  0.94038667  0.02993533  0.46069425  1.0
  Y  Y421  1  0.94038667  0.36326867  0.46069425  1.0
  Y  Y422  1  0.94038667  0.69660200  0.46069425  1.0
  Y  Y423  1  0.27372000  0.19660200  0.33569425  1.0
  Y  Y424  1  0.27372000  0.52993533  0.33569425  1.0
  Y  Y425  1  0.27372000  0.86326867  0.33569425  1.0
  Y  Y426  1  0.60705333  0.19660200  0.33569425  1.0
  Y  Y427  1  0.60705333  0.52993533  0.33569425  1.0
  Y  Y428  1  0.60705333  0.86326867  0.33569425  1.0
  Y  Y429  1  0.94038667  0.19660200  0.33569425  1.0
  Y  Y430  1  0.94038667  0.52993533  0.33569425  1.0
  Y  Y431  1  0.94038667  0.86326867  0.33569425  1.0
  Y  Y432  1  0.04868433  0.08926100  0.37055425  1.0
  Y  Y433  1  0.04868433  0.42259433  0.37055425  1.0
  Y  Y434  1  0.04868433  0.75592767  0.37055425  1.0
  Y  Y435  1  0.38201767  0.08926100  0.37055425  1.0
  Y  Y436  1  0.38201767  0.42259433  0.37055425  1.0
  Y  Y437  1  0.38201767  0.75592767  0.37055425  1.0
  Y  Y438  1  0.71535100  0.08926100  0.37055425  1.0
  Y  Y439  1  0.71535100  0.42259433  0.37055425  1.0
  Y  Y440  1  0.71535100  0.75592767  0.37055425  1.0
  Y  Y441  1  0.04868433  0.25592767  0.49555425  1.0
  Y  Y442  1  0.04868433  0.58926100  0.49555425  1.0
  Y  Y443  1  0.04868433  0.92259433  0.49555425  1.0
  Y  Y444  1  0.38201767  0.25592767  0.49555425  1.0
  Y  Y445  1  0.38201767  0.58926100  0.49555425  1.0
  Y  Y446  1  0.38201767  0.92259433  0.49555425  1.0
  Y  Y447  1  0.71535100  0.25592767  0.49555425  1.0
  Y  Y448  1  0.71535100  0.58926100  0.49555425  1.0
  Y  Y449  1  0.71535100  0.92259433  0.49555425  1.0
  Y  Y450  1  0.11798233  0.00592767  0.43305425  1.0
  Y  Y451  1  0.11798233  0.33926100  0.43305425  1.0
  Y  Y452  1  0.11798233  0.67259433  0.43305425  1.0
  Y  Y453  1  0.45131567  0.00592767  0.43305425  1.0
  Y  Y454  1  0.45131567  0.33926100  0.43305425  1.0
  Y  Y455  1  0.45131567  0.67259433  0.43305425  1.0
  Y  Y456  1  0.78464900  0.00592767  0.43305425  1.0
  Y  Y457  1  0.78464900  0.33926100  0.43305425  1.0
  Y  Y458  1  0.78464900  0.67259433  0.43305425  1.0
  Y  Y459  1  0.11798233  0.17259433  0.30805425  1.0
  Y  Y460  1  0.11798233  0.50592767  0.30805425  1.0
  Y  Y461  1  0.11798233  0.83926100  0.30805425  1.0
  Y  Y462  1  0.45131567  0.17259433  0.30805425  1.0
  Y  Y463  1  0.45131567  0.50592767  0.30805425  1.0
  Y  Y464  1  0.45131567  0.83926100  0.30805425  1.0
  Y  Y465  1  0.78464900  0.17259433  0.30805425  1.0
  Y  Y466  1  0.78464900  0.50592767  0.30805425  1.0
  Y  Y467  1  0.78464900  0.83926100  0.30805425  1.0
  Y  Y468  1  0.28464900  0.07740567  0.25444575  1.0
  Y  Y469  1  0.28464900  0.41073900  0.25444575  1.0
  Y  Y470  1  0.28464900  0.74407233  0.25444575  1.0
  Y  Y471  1  0.61798233  0.07740567  0.25444575  1.0
  Y  Y472  1  0.61798233  0.41073900  0.25444575  1.0
  Y  Y473  1  0.61798233  0.74407233  0.25444575  1.0
  Y  Y474  1  0.95131567  0.07740567  0.25444575  1.0
  Y  Y475  1  0.95131567  0.41073900  0.25444575  1.0
  Y  Y476  1  0.95131567  0.74407233  0.25444575  1.0
  Y  Y477  1  0.28464900  0.24407233  0.37944575  1.0
  Y  Y478  1  0.28464900  0.57740567  0.37944575  1.0
  Y  Y479  1  0.28464900  0.91073900  0.37944575  1.0
  Y  Y480  1  0.61798233  0.24407233  0.37944575  1.0
  Y  Y481  1  0.61798233  0.57740567  0.37944575  1.0
  Y  Y482  1  0.61798233  0.91073900  0.37944575  1.0
  Y  Y483  1  0.95131567  0.24407233  0.37944575  1.0
  Y  Y484  1  0.95131567  0.57740567  0.37944575  1.0
  Y  Y485  1  0.95131567  0.91073900  0.37944575  1.0
  Y  Y486  1  0.21535100  0.16073900  0.44194575  1.0
  Y  Y487  1  0.21535100  0.49407233  0.44194575  1.0
  Y  Y488  1  0.21535100  0.82740567  0.44194575  1.0
  Y  Y489  1  0.54868433  0.16073900  0.44194575  1.0
  Y  Y490  1  0.54868433  0.49407233  0.44194575  1.0
  Y  Y491  1  0.54868433  0.82740567  0.44194575  1.0
  Y  Y492  1  0.88201767  0.16073900  0.44194575  1.0
  Y  Y493  1  0.88201767  0.49407233  0.44194575  1.0
  Y  Y494  1  0.88201767  0.82740567  0.44194575  1.0
  Y  Y495  1  0.21535100  0.32740567  0.31694575  1.0
  Y  Y496  1  0.21535100  0.66073900  0.31694575  1.0
  Y  Y497  1  0.21535100  0.99407233  0.31694575  1.0
  Y  Y498  1  0.54868433  0.32740567  0.31694575  1.0
  Y  Y499  1  0.54868433  0.66073900  0.31694575  1.0
  Y  Y500  1  0.54868433  0.99407233  0.31694575  1.0
  Y  Y501  1  0.88201767  0.32740567  0.31694575  1.0
  Y  Y502  1  0.88201767  0.66073900  0.31694575  1.0
  Y  Y503  1  0.88201767  0.99407233  0.31694575  1.0
  Ni  Ni504  1  0.31433333  0.14826667  0.32630000  1.0
  Ni  Ni505  1  0.31433333  0.48160000  0.32630000  1.0
  Ni  Ni506  1  0.31433333  0.81493333  0.32630000  1.0
  Ni  Ni507  1  0.64766667  0.14826667  0.32630000  1.0
  Ni  Ni508  1  0.64766667  0.48160000  0.32630000  1.0
  Ni  Ni509  1  0.64766667  0.81493333  0.32630000  1.0
  Ni  Ni510  1  0.98100000  0.14826667  0.32630000  1.0
  Ni  Ni511  1  0.98100000  0.48160000  0.32630000  1.0
  Ni  Ni512  1  0.98100000  0.81493333  0.32630000  1.0
  Ni  Ni513  1  0.31433333  0.31493333  0.45130000  1.0
  Ni  Ni514  1  0.31433333  0.64826667  0.45130000  1.0
  Ni  Ni515  1  0.31433333  0.98160000  0.45130000  1.0
  Ni  Ni516  1  0.64766667  0.31493333  0.45130000  1.0
  Ni  Ni517  1  0.64766667  0.64826667  0.45130000  1.0
  Ni  Ni518  1  0.64766667  0.98160000  0.45130000  1.0
  Ni  Ni519  1  0.98100000  0.31493333  0.45130000  1.0
  Ni  Ni520  1  0.98100000  0.64826667  0.45130000  1.0
  Ni  Ni521  1  0.98100000  0.98160000  0.45130000  1.0
  Ni  Ni522  1  0.18566667  0.06493333  0.38880000  1.0
  Ni  Ni523  1  0.18566667  0.39826667  0.38880000  1.0
  Ni  Ni524  1  0.18566667  0.73160000  0.38880000  1.0
  Ni  Ni525  1  0.51900000  0.06493333  0.38880000  1.0
  Ni  Ni526  1  0.51900000  0.39826667  0.38880000  1.0
  Ni  Ni527  1  0.51900000  0.73160000  0.38880000  1.0
  Ni  Ni528  1  0.85233333  0.06493333  0.38880000  1.0
  Ni  Ni529  1  0.85233333  0.39826667  0.38880000  1.0
  Ni  Ni530  1  0.85233333  0.73160000  0.38880000  1.0
  Ni  Ni531  1  0.18566667  0.23160000  0.26380000  1.0
  Ni  Ni532  1  0.18566667  0.56493333  0.26380000  1.0
  Ni  Ni533  1  0.18566667  0.89826667  0.26380000  1.0
  Ni  Ni534  1  0.51900000  0.23160000  0.26380000  1.0
  Ni  Ni535  1  0.51900000  0.56493333  0.26380000  1.0
  Ni  Ni536  1  0.51900000  0.89826667  0.26380000  1.0
  Ni  Ni537  1  0.85233333  0.23160000  0.26380000  1.0
  Ni  Ni538  1  0.85233333  0.56493333  0.26380000  1.0
  Ni  Ni539  1  0.85233333  0.89826667  0.26380000  1.0
  Ni  Ni540  1  0.01900000  0.01840000  0.29870000  1.0
  Ni  Ni541  1  0.01900000  0.35173333  0.29870000  1.0
  Ni  Ni542  1  0.01900000  0.68506667  0.29870000  1.0
  Ni  Ni543  1  0.35233333  0.01840000  0.29870000  1.0
  Ni  Ni544  1  0.35233333  0.35173333  0.29870000  1.0
  Ni  Ni545  1  0.35233333  0.68506667  0.29870000  1.0
  Ni  Ni546  1  0.68566667  0.01840000  0.29870000  1.0
  Ni  Ni547  1  0.68566667  0.35173333  0.29870000  1.0
  Ni  Ni548  1  0.68566667  0.68506667  0.29870000  1.0
  Ni  Ni549  1  0.01900000  0.18506667  0.42370000  1.0
  Ni  Ni550  1  0.01900000  0.51840000  0.42370000  1.0
  Ni  Ni551  1  0.01900000  0.85173333  0.42370000  1.0
  Ni  Ni552  1  0.35233333  0.18506667  0.42370000  1.0
  Ni  Ni553  1  0.35233333  0.51840000  0.42370000  1.0
  Ni  Ni554  1  0.35233333  0.85173333  0.42370000  1.0
  Ni  Ni555  1  0.68566667  0.18506667  0.42370000  1.0
  Ni  Ni556  1  0.68566667  0.51840000  0.42370000  1.0
  Ni  Ni557  1  0.68566667  0.85173333  0.42370000  1.0
  Ni  Ni558  1  0.14766667  0.10173333  0.48620000  1.0
  Ni  Ni559  1  0.14766667  0.43506667  0.48620000  1.0
  Ni  Ni560  1  0.14766667  0.76840000  0.48620000  1.0
  Ni  Ni561  1  0.48100000  0.10173333  0.48620000  1.0
  Ni  Ni562  1  0.48100000  0.43506667  0.48620000  1.0
  Ni  Ni563  1  0.48100000  0.76840000  0.48620000  1.0
  Ni  Ni564  1  0.81433333  0.10173333  0.48620000  1.0
  Ni  Ni565  1  0.81433333  0.43506667  0.48620000  1.0
  Ni  Ni566  1  0.81433333  0.76840000  0.48620000  1.0
  Ni  Ni567  1  0.14766667  0.26840000  0.36120000  1.0
  Ni  Ni568  1  0.14766667  0.60173333  0.36120000  1.0
  Ni  Ni569  1  0.14766667  0.93506667  0.36120000  1.0
  Ni  Ni570  1  0.48100000  0.26840000  0.36120000  1.0
  Ni  Ni571  1  0.48100000  0.60173333  0.36120000  1.0
  Ni  Ni572  1  0.48100000  0.93506667  0.36120000  1.0
  Ni  Ni573  1  0.81433333  0.26840000  0.36120000  1.0
  Ni  Ni574  1  0.81433333  0.60173333  0.36120000  1.0
  Ni  Ni575  1  0.81433333  0.93506667  0.36120000  1.0
