# generated using pymatgen
data_Y3Ni
_symmetry_space_group_name_H-M   'P 1'
_cell_length_a   20.60147100
_cell_length_b   29.11127700
_cell_length_c   31.83369500
_cell_angle_alpha   90.00000000
_cell_angle_beta   90.00000000
_cell_angle_gamma   90.00000000
_symmetry_Int_Tables_number   1
_chemical_formula_structural   Y3Ni
_chemical_formula_sum   'Y216 Ni72'
_cell_volume   19091.78517382
_cell_formula_units_Z   72
loop_
 _symmetry_equiv_pos_site_id
 _symmetry_equiv_pos_as_xyz
  1  'x, y, z'
loop_
 _atom_site_type_symbol
 _atom_site_label
 _atom_site_symmetry_multiplicity
 _atom_site_fract_x
 _atom_site_fract_y
 _atom_site_fract_z
 _atom_site_occupancy
  Y  Y0  1  0.22653733  0.02247233  0.04392670  1.0
  Y  Y1  1  0.22653733  0.35580567  0.04392670  1.0
  Y  Y2  1  0.22653733  0.68913900  0.04392670  1.0
  Y  Y3  1  0.55987067  0.02247233  0.04392670  1.0
  Y  Y4  1  0.55987067  0.35580567  0.04392670  1.0
  Y  Y5  1  0.55987067  0.68913900  0.04392670  1.0
  Y  Y6  1  0.89320400  0.02247233  0.04392670  1.0
  Y  Y7  1  0.89320400  0.35580567  0.04392670  1.0
  Y  Y8  1  0.89320400  0.68913900  0.04392670  1.0
  Y  Y9  1  0.05987067  0.14419433  0.01546270  1.0
  Y  Y10  1  0.05987067  0.47752767  0.01546270  1.0
  Y  Y11  1  0.05987067  0.81086100  0.01546270  1.0
  Y  Y12  1  0.39320400  0.14419433  0.01546270  1.0
  Y  Y13  1  0.39320400  0.47752767  0.01546270  1.0
  Y  Y14  1  0.39320400  0.81086100  0.01546270  1.0
  Y  Y15  1  0.72653733  0.14419433  0.01546270  1.0
  Y  Y16  1  0.72653733  0.47752767  0.01546270  1.0
  Y  Y17  1  0.72653733  0.81086100  0.01546270  1.0
  Y  Y18  1  0.10679600  0.18913900  0.11546270  1.0
  Y  Y19  1  0.10679600  0.52247233  0.11546270  1.0
  Y  Y20  1  0.10679600  0.85580567  0.11546270  1.0
  Y  Y21  1  0.44012933  0.18913900  0.11546270  1.0
  Y  Y22  1  0.44012933  0.52247233  0.11546270  1.0
  Y  Y23  1  0.44012933  0.85580567  0.11546270  1.0
  Y  Y24  1  0.77346267  0.18913900  0.11546270  1.0
  Y  Y25  1  0.77346267  0.52247233  0.11546270  1.0
  Y  Y26  1  0.77346267  0.85580567  0.11546270  1.0
  Y  Y27  1  0.27346267  0.31086100  0.14392670  1.0
  Y  Y28  1  0.27346267  0.64419433  0.14392670  1.0
  Y  Y29  1  0.27346267  0.97752767  0.14392670  1.0
  Y  Y30  1  0.60679600  0.31086100  0.14392670  1.0
  Y  Y31  1  0.60679600  0.64419433  0.14392670  1.0
  Y  Y32  1  0.60679600  0.97752767  0.14392670  1.0
  Y  Y33  1  0.94012933  0.31086100  0.14392670  1.0
  Y  Y34  1  0.94012933  0.64419433  0.14392670  1.0
  Y  Y35  1  0.94012933  0.97752767  0.14392670  1.0
  Y  Y36  1  0.10679600  0.31086100  0.11546270  1.0
  Y  Y37  1  0.10679600  0.64419433  0.11546270  1.0
  Y  Y38  1  0.10679600  0.97752767  0.11546270  1.0
  Y  Y39  1  0.44012933  0.31086100  0.11546270  1.0
  Y  Y40  1  0.44012933  0.64419433  0.11546270  1.0
  Y  Y41  1  0.44012933  0.97752767  0.11546270  1.0
  Y  Y42  1  0.77346267  0.31086100  0.11546270  1.0
  Y  Y43  1  0.77346267  0.64419433  0.11546270  1.0
  Y  Y44  1  0.77346267  0.97752767  0.11546270  1.0
  Y  Y45  1  0.27346267  0.18913900  0.14392670  1.0
  Y  Y46  1  0.27346267  0.52247233  0.14392670  1.0
  Y  Y47  1  0.27346267  0.85580567  0.14392670  1.0
  Y  Y48  1  0.60679600  0.18913900  0.14392670  1.0
  Y  Y49  1  0.60679600  0.52247233  0.14392670  1.0
  Y  Y50  1  0.60679600  0.85580567  0.14392670  1.0
  Y  Y51  1  0.94012933  0.18913900  0.14392670  1.0
  Y  Y52  1  0.94012933  0.52247233  0.14392670  1.0
  Y  Y53  1  0.94012933  0.85580567  0.14392670  1.0
  Y  Y54  1  0.22653733  0.14419433  0.04392670  1.0
  Y  Y55  1  0.22653733  0.47752767  0.04392670  1.0
  Y  Y56  1  0.22653733  0.81086100  0.04392670  1.0
  Y  Y57  1  0.55987067  0.14419433  0.04392670  1.0
  Y  Y58  1  0.55987067  0.47752767  0.04392670  1.0
  Y  Y59  1  0.55987067  0.81086100  0.04392670  1.0
  Y  Y60  1  0.89320400  0.14419433  0.04392670  1.0
  Y  Y61  1  0.89320400  0.47752767  0.04392670  1.0
  Y  Y62  1  0.89320400  0.81086100  0.04392670  1.0
  Y  Y63  1  0.05987067  0.02247233  0.01546270  1.0
  Y  Y64  1  0.05987067  0.35580567  0.01546270  1.0
  Y  Y65  1  0.05987067  0.68913900  0.01546270  1.0
  Y  Y66  1  0.39320400  0.02247233  0.01546270  1.0
  Y  Y67  1  0.39320400  0.35580567  0.01546270  1.0
  Y  Y68  1  0.39320400  0.68913900  0.01546270  1.0
  Y  Y69  1  0.72653733  0.02247233  0.01546270  1.0
  Y  Y70  1  0.72653733  0.35580567  0.01546270  1.0
  Y  Y71  1  0.72653733  0.68913900  0.01546270  1.0
  Y  Y72  1  0.17852200  0.08333333  0.15048410  1.0
  Y  Y73  1  0.17852200  0.41666667  0.15048410  1.0
  Y  Y74  1  0.17852200  0.75000000  0.15048410  1.0
  Y  Y75  1  0.51185533  0.08333333  0.15048410  1.0
  Y  Y76  1  0.51185533  0.41666667  0.15048410  1.0
  Y  Y77  1  0.51185533  0.75000000  0.15048410  1.0
  Y  Y78  1  0.84518867  0.08333333  0.15048410  1.0
  Y  Y79  1  0.84518867  0.41666667  0.15048410  1.0
  Y  Y80  1  0.84518867  0.75000000  0.15048410  1.0
  Y  Y81  1  0.01185533  0.08333333  0.10890530  1.0
  Y  Y82  1  0.01185533  0.41666667  0.10890530  1.0
  Y  Y83  1  0.01185533  0.75000000  0.10890530  1.0
  Y  Y84  1  0.34518867  0.08333333  0.10890530  1.0
  Y  Y85  1  0.34518867  0.41666667  0.10890530  1.0
  Y  Y86  1  0.34518867  0.75000000  0.10890530  1.0
  Y  Y87  1  0.67852200  0.08333333  0.10890530  1.0
  Y  Y88  1  0.67852200  0.41666667  0.10890530  1.0
  Y  Y89  1  0.67852200  0.75000000  0.10890530  1.0
  Y  Y90  1  0.15481133  0.25000000  0.00890530  1.0
  Y  Y91  1  0.15481133  0.58333333  0.00890530  1.0
  Y  Y92  1  0.15481133  0.91666667  0.00890530  1.0
  Y  Y93  1  0.48814467  0.25000000  0.00890530  1.0
  Y  Y94  1  0.48814467  0.58333333  0.00890530  1.0
  Y  Y95  1  0.48814467  0.91666667  0.00890530  1.0
  Y  Y96  1  0.82147800  0.25000000  0.00890530  1.0
  Y  Y97  1  0.82147800  0.58333333  0.00890530  1.0
  Y  Y98  1  0.82147800  0.91666667  0.00890530  1.0
  Y  Y99  1  0.32147800  0.25000000  0.05048410  1.0
  Y  Y100  1  0.32147800  0.58333333  0.05048410  1.0
  Y  Y101  1  0.32147800  0.91666667  0.05048410  1.0
  Y  Y102  1  0.65481133  0.25000000  0.05048410  1.0
  Y  Y103  1  0.65481133  0.58333333  0.05048410  1.0
  Y  Y104  1  0.65481133  0.91666667  0.05048410  1.0
  Y  Y105  1  0.98814467  0.25000000  0.05048410  1.0
  Y  Y106  1  0.98814467  0.58333333  0.05048410  1.0
  Y  Y107  1  0.98814467  0.91666667  0.05048410  1.0
  Ni  Ni108  1  0.29653333  0.08333333  0.19109470  1.0
  Ni  Ni109  1  0.29653333  0.41666667  0.19109470  1.0
  Ni  Ni110  1  0.29653333  0.75000000  0.19109470  1.0
  Ni  Ni111  1  0.62986667  0.08333333  0.19109470  1.0
  Ni  Ni112  1  0.62986667  0.41666667  0.19109470  1.0
  Ni  Ni113  1  0.62986667  0.75000000  0.19109470  1.0
  Ni  Ni114  1  0.96320000  0.08333333  0.19109470  1.0
  Ni  Ni115  1  0.96320000  0.41666667  0.19109470  1.0
  Ni  Ni116  1  0.96320000  0.75000000  0.19109470  1.0
  Ni  Ni117  1  0.12986667  0.08333333  0.06829470  1.0
  Ni  Ni118  1  0.12986667  0.41666667  0.06829470  1.0
  Ni  Ni119  1  0.12986667  0.75000000  0.06829470  1.0
  Ni  Ni120  1  0.46320000  0.08333333  0.06829470  1.0
  Ni  Ni121  1  0.46320000  0.41666667  0.06829470  1.0
  Ni  Ni122  1  0.46320000  0.75000000  0.06829470  1.0
  Ni  Ni123  1  0.79653333  0.08333333  0.06829470  1.0
  Ni  Ni124  1  0.79653333  0.41666667  0.06829470  1.0
  Ni  Ni125  1  0.79653333  0.75000000  0.06829470  1.0
  Ni  Ni126  1  0.03680000  0.25000000  0.16829470  1.0
  Ni  Ni127  1  0.03680000  0.58333333  0.16829470  1.0
  Ni  Ni128  1  0.03680000  0.91666667  0.16829470  1.0
  Ni  Ni129  1  0.37013333  0.25000000  0.16829470  1.0
  Ni  Ni130  1  0.37013333  0.58333333  0.16829470  1.0
  Ni  Ni131  1  0.37013333  0.91666667  0.16829470  1.0
  Ni  Ni132  1  0.70346667  0.25000000  0.16829470  1.0
  Ni  Ni133  1  0.70346667  0.58333333  0.16829470  1.0
  Ni  Ni134  1  0.70346667  0.91666667  0.16829470  1.0
  Ni  Ni135  1  0.20346667  0.25000000  0.09109470  1.0
  Ni  Ni136  1  0.20346667  0.58333333  0.09109470  1.0
  Ni  Ni137  1  0.20346667  0.91666667  0.09109470  1.0
  Ni  Ni138  1  0.53680000  0.25000000  0.09109470  1.0
  Ni  Ni139  1  0.53680000  0.58333333  0.09109470  1.0
  Ni  Ni140  1  0.53680000  0.91666667  0.09109470  1.0
  Ni  Ni141  1  0.87013333  0.25000000  0.09109470  1.0
  Ni  Ni142  1  0.87013333  0.58333333  0.09109470  1.0
  Ni  Ni143  1  0.87013333  0.91666667  0.09109470  1.0
  Y  Y144  1  0.22653733  0.02247233  0.24392670  1.0
  Y  Y145  1  0.22653733  0.35580567  0.24392670  1.0
  Y  Y146  1  0.22653733  0.68913900  0.24392670  1.0
  Y  Y147  1  0.55987067  0.02247233  0.24392670  1.0
  Y  Y148  1  0.55987067  0.35580567  0.24392670  1.0
  Y  Y149  1  0.55987067  0.68913900  0.24392670  1.0
  Y  Y150  1  0.89320400  0.02247233  0.24392670  1.0
  Y  Y151  1  0.89320400  0.35580567  0.24392670  1.0
  Y  Y152  1  0.89320400  0.68913900  0.24392670  1.0
  Y  Y153  1  0.05987067  0.14419433  0.21546270  1.0
  Y  Y154  1  0.05987067  0.47752767  0.21546270  1.0
  Y  Y155  1  0.05987067  0.81086100  0.21546270  1.0
  Y  Y156  1  0.39320400  0.14419433  0.21546270  1.0
  Y  Y157  1  0.39320400  0.47752767  0.21546270  1.0
  Y  Y158  1  0.39320400  0.81086100  0.21546270  1.0
  Y  Y159  1  0.72653733  0.14419433  0.21546270  1.0
  Y  Y160  1  0.72653733  0.47752767  0.21546270  1.0
  Y  Y161  1  0.72653733  0.81086100  0.21546270  1.0
  Y  Y162  1  0.10679600  0.18913900  0.31546270  1.0
  Y  Y163  1  0.10679600  0.52247233  0.31546270  1.0
  Y  Y164  1  0.10679600  0.85580567  0.31546270  1.0
  Y  Y165  1  0.44012933  0.18913900  0.31546270  1.0
  Y  Y166  1  0.44012933  0.52247233  0.31546270  1.0
  Y  Y167  1  0.44012933  0.85580567  0.31546270  1.0
  Y  Y168  1  0.77346267  0.18913900  0.31546270  1.0
  Y  Y169  1  0.77346267  0.52247233  0.31546270  1.0
  Y  Y170  1  0.77346267  0.85580567  0.31546270  1.0
  Y  Y171  1  0.27346267  0.31086100  0.34392670  1.0
  Y  Y172  1  0.27346267  0.64419433  0.34392670  1.0
  Y  Y173  1  0.27346267  0.97752767  0.34392670  1.0
  Y  Y174  1  0.60679600  0.31086100  0.34392670  1.0
  Y  Y175  1  0.60679600  0.64419433  0.34392670  1.0
  Y  Y176  1  0.60679600  0.97752767  0.34392670  1.0
  Y  Y177  1  0.94012933  0.31086100  0.34392670  1.0
  Y  Y178  1  0.94012933  0.64419433  0.34392670  1.0
  Y  Y179  1  0.94012933  0.97752767  0.34392670  1.0
  Y  Y180  1  0.10679600  0.31086100  0.31546270  1.0
  Y  Y181  1  0.10679600  0.64419433  0.31546270  1.0
  Y  Y182  1  0.10679600  0.97752767  0.31546270  1.0
  Y  Y183  1  0.44012933  0.31086100  0.31546270  1.0
  Y  Y184  1  0.44012933  0.64419433  0.31546270  1.0
  Y  Y185  1  0.44012933  0.97752767  0.31546270  1.0
  Y  Y186  1  0.77346267  0.31086100  0.31546270  1.0
  Y  Y187  1  0.77346267  0.64419433  0.31546270  1.0
  Y  Y188  1  0.77346267  0.97752767  0.31546270  1.0
  Y  Y189  1  0.27346267  0.18913900  0.34392670  1.0
  Y  Y190  1  0.27346267  0.52247233  0.34392670  1.0
  Y  Y191  1  0.27346267  0.85580567  0.34392670  1.0
  Y  Y192  1  0.60679600  0.18913900  0.34392670  1.0
  Y  Y193  1  0.60679600  0.52247233  0.34392670  1.0
  Y  Y194  1  0.60679600  0.85580567  0.34392670  1.0
  Y  Y195  1  0.94012933  0.18913900  0.34392670  1.0
  Y  Y196  1  0.94012933  0.52247233  0.34392670  1.0
  Y  Y197  1  0.94012933  0.85580567  0.34392670  1.0
  Y  Y198  1  0.22653733  0.14419433  0.24392670  1.0
  Y  Y199  1  0.22653733  0.47752767  0.24392670  1.0
  Y  Y200  1  0.22653733  0.81086100  0.24392670  1.0
  Y  Y201  1  0.55987067  0.14419433  0.24392670  1.0
  Y  Y202  1  0.55987067  0.47752767  0.24392670  1.0
  Y  Y203  1  0.55987067  0.81086100  0.24392670  1.0
  Y  Y204  1  0.89320400  0.14419433  0.24392670  1.0
  Y  Y205  1  0.89320400  0.47752767  0.24392670  1.0
  Y  Y206  1  0.89320400  0.81086100  0.24392670  1.0
  Y  Y207  1  0.05987067  0.02247233  0.21546270  1.0
  Y  Y208  1  0.05987067  0.35580567  0.21546270  1.0
  Y  Y209  1  0.05987067  0.68913900  0.21546270  1.0
  Y  Y210  1  0.39320400  0.02247233  0.21546270  1.0
  Y  Y211  1  0.39320400  0.35580567  0.21546270  1.0
  Y  Y212  1  0.39320400  0.68913900  0.21546270  1.0
  Y  Y213  1  0.72653733  0.02247233  0.21546270  1.0
  Y  Y214  1  0.72653733  0.35580567  0.21546270  1.0
  Y  Y215  1  0.72653733  0.68913900  0.21546270  1.0
  Y  Y216  1  0.17852200  0.08333333  0.35048410  1.0
  Y  Y217  1  0.17852200  0.41666667  0.35048410  1.0
  Y  Y218  1  0.17852200  0.75000000  0.35048410  1.0
  Y  Y219  1  0.51185533  0.08333333  0.35048410  1.0
  Y  Y220  1  0.51185533  0.41666667  0.35048410  1.0
  Y  Y221  1  0.51185533  0.75000000  0.35048410  1.0
  Y  Y222  1  0.84518867  0.08333333  0.35048410  1.0
  Y  Y223  1  0.84518867  0.41666667  0.35048410  1.0
  Y  Y224  1  0.84518867  0.75000000  0.35048410  1.0
  Y  Y225  1  0.01185533  0.08333333  0.30890530  1.0
  Y  Y226  1  0.01185533  0.41666667  0.30890530  1.0
  Y  Y227  1  0.01185533  0.75000000  0.30890530  1.0
  Y  Y228  1  0.34518867  0.08333333  0.30890530  1.0
  Y  Y229  1  0.34518867  0.41666667  0.30890530  1.0
  Y  Y230  1  0.34518867  0.75000000  0.30890530  1.0
  Y  Y231  1  0.67852200  0.08333333  0.30890530  1.0
  Y  Y232  1  0.67852200  0.41666667  0.30890530  1.0
  Y  Y233  1  0.67852200  0.75000000  0.30890530  1.0
  Y  Y234  1  0.15481133  0.25000000  0.20890530  1.0
  Y  Y235  1  0.15481133  0.58333333  0.20890530  1.0
  Y  Y236  1  0.15481133  0.91666667  0.20890530  1.0
  Y  Y237  1  0.48814467  0.25000000  0.20890530  1.0
  Y  Y238  1  0.48814467  0.58333333  0.20890530  1.0
  Y  Y239  1  0.48814467  0.91666667  0.20890530  1.0
  Y  Y240  1  0.82147800  0.25000000  0.20890530  1.0
  Y  Y241  1  0.82147800  0.58333333  0.20890530  1.0
  Y  Y242  1  0.82147800  0.91666667  0.20890530  1.0
  Y  Y243  1  0.32147800  0.25000000  0.25048410  1.0
  Y  Y244  1  0.32147800  0.58333333  0.25048410  1.0
  Y  Y245  1  0.32147800  0.91666667  0.25048410  1.0
  Y  Y246  1  0.65481133  0.25000000  0.25048410  1.0
  Y  Y247  1  0.65481133  0.58333333  0.25048410  1.0
  Y  Y248  1  0.65481133  0.91666667  0.25048410  1.0
  Y  Y249  1  0.98814467  0.25000000  0.25048410  1.0
  Y  Y250  1  0.98814467  0.58333333  0.25048410  1.0
  Y  Y251  1  0.98814467  0.91666667  0.25048410  1.0
  Ni  Ni252  1  0.29653333  0.08333333  0.39109470  1.0
  Ni  Ni253  1  0.29653333  0.41666667  0.39109470  1.0
  Ni  Ni254  1  0.29653333  0.75000000  0.39109470  1.0
  Ni  Ni255  1  0.62986667  0.08333333  0.39109470  1.0
  Ni  Ni256  1  0.62986667  0.41666667  0.39109470  1.0
  Ni  Ni257  1  0.62986667  0.75000000  0.39109470  1.0
  Ni  Ni258  1  0.96320000  0.08333333  0.39109470  1.0
  Ni  Ni259  1  0.96320000  0.41666667  0.39109470  1.0
  Ni  Ni260  1  0.96320000  0.75000000  0.39109470  1.0
  Ni  Ni261  1  0.12986667  0.08333333  0.26829470  1.0
  Ni  Ni262  1  0.12986667  0.41666667  0.26829470  1.0
  Ni  Ni263  1  0.12986667  0.75000000  0.26829470  1.0
  Ni  Ni264  1  0.46320000  0.08333333  0.26829470  1.0
  Ni  Ni265  1  0.46320000  0.41666667  0.26829470  1.0
  Ni  Ni266  1  0.46320000  0.75000000  0.26829470  1.0
  Ni  Ni267  1  0.79653333  0.08333333  0.26829470  1.0
  Ni  Ni268  1  0.79653333  0.41666667  0.26829470  1.0
  Ni  Ni269  1  0.79653333  0.75000000  0.26829470  1.0
  Ni  Ni270  1  0.03680000  0.25000000  0.36829470  1.0
  Ni  Ni271  1  0.03680000  0.58333333  0.36829470  1.0
  Ni  Ni272  1  0.03680000  0.91666667  0.36829470  1.0
  Ni  Ni273  1  0.37013333  0.25000000  0.36829470  1.0
  Ni  Ni274  1  0.37013333  0.58333333  0.36829470  1.0
  Ni  Ni275  1  0.37013333  0.91666667  0.36829470  1.0
  Ni  Ni276  1  0.70346667  0.25000000  0.36829470  1.0
  Ni  Ni277  1  0.70346667  0.58333333  0.36829470  1.0
  Ni  Ni278  1  0.70346667  0.91666667  0.36829470  1.0
  Ni  Ni279  1  0.20346667  0.25000000  0.29109470  1.0
  Ni  Ni280  1  0.20346667  0.58333333  0.29109470  1.0
  Ni  Ni281  1  0.20346667  0.91666667  0.29109470  1.0
  Ni  Ni282  1  0.53680000  0.25000000  0.29109470  1.0
  Ni  Ni283  1  0.53680000  0.58333333  0.29109470  1.0
  Ni  Ni284  1  0.53680000  0.91666667  0.29109470  1.0
  Ni  Ni285  1  0.87013333  0.25000000  0.29109470  1.0
  Ni  Ni286  1  0.87013333  0.58333333  0.29109470  1.0
  Ni  Ni287  1  0.87013333  0.91666667  0.29109470  1.0
