# generated using pymatgen
data_Y3Ni
_symmetry_space_group_name_H-M   'P 1'
_cell_length_a   35.66352557
_cell_length_b   40.45621516
_cell_length_c   28.10492184
_cell_angle_alpha   93.14912430
_cell_angle_beta   98.08770598
_cell_angle_gamma   107.05019685
_symmetry_Int_Tables_number   1
_chemical_formula_structural   Y3Ni
_chemical_formula_sum   'Y432 Ni144'
_cell_volume   38183.57034764
_cell_formula_units_Z   144
loop_
 _symmetry_equiv_pos_site_id
 _symmetry_equiv_pos_as_xyz
  1  'x, y, z'
loop_
 _atom_site_type_symbol
 _atom_site_label
 _atom_site_symmetry_multiplicity
 _atom_site_fract_x
 _atom_site_fract_y
 _atom_site_fract_z
 _atom_site_occupancy
  Ni  Ni0  1  0.10660000  0.14814667  0.12536000  1.0
  Ni  Ni1  1  0.10660000  0.48148000  0.12536000  1.0
  Ni  Ni2  1  0.10660000  0.81481333  0.12536000  1.0
  Ni  Ni3  1  0.43993333  0.14814667  0.12536000  1.0
  Ni  Ni4  1  0.43993333  0.48148000  0.12536000  1.0
  Ni  Ni5  1  0.43993333  0.81481333  0.12536000  1.0
  Ni  Ni6  1  0.77326667  0.14814667  0.12536000  1.0
  Ni  Ni7  1  0.77326667  0.48148000  0.12536000  1.0
  Ni  Ni8  1  0.77326667  0.81481333  0.12536000  1.0
  Ni  Ni9  1  0.27326667  0.01481333  0.02536000  1.0
  Ni  Ni10  1  0.27326667  0.34814667  0.02536000  1.0
  Ni  Ni11  1  0.27326667  0.68148000  0.02536000  1.0
  Ni  Ni12  1  0.60660000  0.01481333  0.02536000  1.0
  Ni  Ni13  1  0.60660000  0.34814667  0.02536000  1.0
  Ni  Ni14  1  0.60660000  0.68148000  0.02536000  1.0
  Ni  Ni15  1  0.93993333  0.01481333  0.02536000  1.0
  Ni  Ni16  1  0.93993333  0.34814667  0.02536000  1.0
  Ni  Ni17  1  0.93993333  0.68148000  0.02536000  1.0
  Ni  Ni18  1  0.02326667  0.05574667  0.15256000  1.0
  Ni  Ni19  1  0.02326667  0.38908000  0.15256000  1.0
  Ni  Ni20  1  0.02326667  0.72241333  0.15256000  1.0
  Ni  Ni21  1  0.35660000  0.05574667  0.15256000  1.0
  Ni  Ni22  1  0.35660000  0.38908000  0.15256000  1.0
  Ni  Ni23  1  0.35660000  0.72241333  0.15256000  1.0
  Ni  Ni24  1  0.68993333  0.05574667  0.15256000  1.0
  Ni  Ni25  1  0.68993333  0.38908000  0.15256000  1.0
  Ni  Ni26  1  0.68993333  0.72241333  0.15256000  1.0
  Ni  Ni27  1  0.18993333  0.25574667  0.05256000  1.0
  Ni  Ni28  1  0.18993333  0.58908000  0.05256000  1.0
  Ni  Ni29  1  0.18993333  0.92241333  0.05256000  1.0
  Ni  Ni30  1  0.52326667  0.25574667  0.05256000  1.0
  Ni  Ni31  1  0.52326667  0.58908000  0.05256000  1.0
  Ni  Ni32  1  0.52326667  0.92241333  0.05256000  1.0
  Ni  Ni33  1  0.85660000  0.25574667  0.05256000  1.0
  Ni  Ni34  1  0.85660000  0.58908000  0.05256000  1.0
  Ni  Ni35  1  0.85660000  0.92241333  0.05256000  1.0
  Ni  Ni36  1  0.22673333  0.11852000  0.07464000  1.0
  Ni  Ni37  1  0.22673333  0.45185333  0.07464000  1.0
  Ni  Ni38  1  0.22673333  0.78518667  0.07464000  1.0
  Ni  Ni39  1  0.56006667  0.11852000  0.07464000  1.0
  Ni  Ni40  1  0.56006667  0.45185333  0.07464000  1.0
  Ni  Ni41  1  0.56006667  0.78518667  0.07464000  1.0
  Ni  Ni42  1  0.89340000  0.11852000  0.07464000  1.0
  Ni  Ni43  1  0.89340000  0.45185333  0.07464000  1.0
  Ni  Ni44  1  0.89340000  0.78518667  0.07464000  1.0
  Ni  Ni45  1  0.06006667  0.25185333  0.17464000  1.0
  Ni  Ni46  1  0.06006667  0.58518667  0.17464000  1.0
  Ni  Ni47  1  0.06006667  0.91852000  0.17464000  1.0
  Ni  Ni48  1  0.39340000  0.25185333  0.17464000  1.0
  Ni  Ni49  1  0.39340000  0.58518667  0.17464000  1.0
  Ni  Ni50  1  0.39340000  0.91852000  0.17464000  1.0
  Ni  Ni51  1  0.72673333  0.25185333  0.17464000  1.0
  Ni  Ni52  1  0.72673333  0.58518667  0.17464000  1.0
  Ni  Ni53  1  0.72673333  0.91852000  0.17464000  1.0
  Ni  Ni54  1  0.31006667  0.21092000  0.04744000  1.0
  Ni  Ni55  1  0.31006667  0.54425333  0.04744000  1.0
  Ni  Ni56  1  0.31006667  0.87758667  0.04744000  1.0
  Ni  Ni57  1  0.64340000  0.21092000  0.04744000  1.0
  Ni  Ni58  1  0.64340000  0.54425333  0.04744000  1.0
  Ni  Ni59  1  0.64340000  0.87758667  0.04744000  1.0
  Ni  Ni60  1  0.97673333  0.21092000  0.04744000  1.0
  Ni  Ni61  1  0.97673333  0.54425333  0.04744000  1.0
  Ni  Ni62  1  0.97673333  0.87758667  0.04744000  1.0
  Ni  Ni63  1  0.14340000  0.01092000  0.14744000  1.0
  Ni  Ni64  1  0.14340000  0.34425333  0.14744000  1.0
  Ni  Ni65  1  0.14340000  0.67758667  0.14744000  1.0
  Ni  Ni66  1  0.47673333  0.01092000  0.14744000  1.0
  Ni  Ni67  1  0.47673333  0.34425333  0.14744000  1.0
  Ni  Ni68  1  0.47673333  0.67758667  0.14744000  1.0
  Ni  Ni69  1  0.81006667  0.01092000  0.14744000  1.0
  Ni  Ni70  1  0.81006667  0.34425333  0.14744000  1.0
  Ni  Ni71  1  0.81006667  0.67758667  0.14744000  1.0
  Ni  Ni72  1  0.10660000  0.08148000  0.32536000  1.0
  Ni  Ni73  1  0.10660000  0.41481333  0.32536000  1.0
  Ni  Ni74  1  0.10660000  0.74814667  0.32536000  1.0
  Ni  Ni75  1  0.43993333  0.08148000  0.32536000  1.0
  Ni  Ni76  1  0.43993333  0.41481333  0.32536000  1.0
  Ni  Ni77  1  0.43993333  0.74814667  0.32536000  1.0
  Ni  Ni78  1  0.77326667  0.08148000  0.32536000  1.0
  Ni  Ni79  1  0.77326667  0.41481333  0.32536000  1.0
  Ni  Ni80  1  0.77326667  0.74814667  0.32536000  1.0
  Ni  Ni81  1  0.27326667  0.28148000  0.22536000  1.0
  Ni  Ni82  1  0.27326667  0.61481333  0.22536000  1.0
  Ni  Ni83  1  0.27326667  0.94814667  0.22536000  1.0
  Ni  Ni84  1  0.60660000  0.28148000  0.22536000  1.0
  Ni  Ni85  1  0.60660000  0.61481333  0.22536000  1.0
  Ni  Ni86  1  0.60660000  0.94814667  0.22536000  1.0
  Ni  Ni87  1  0.93993333  0.28148000  0.22536000  1.0
  Ni  Ni88  1  0.93993333  0.61481333  0.22536000  1.0
  Ni  Ni89  1  0.93993333  0.94814667  0.22536000  1.0
  Ni  Ni90  1  0.02326667  0.32241333  0.35256000  1.0
  Ni  Ni91  1  0.02326667  0.65574667  0.35256000  1.0
  Ni  Ni92  1  0.02326667  0.98908000  0.35256000  1.0
  Ni  Ni93  1  0.35660000  0.32241333  0.35256000  1.0
  Ni  Ni94  1  0.35660000  0.65574667  0.35256000  1.0
  Ni  Ni95  1  0.35660000  0.98908000  0.35256000  1.0
  Ni  Ni96  1  0.68993333  0.32241333  0.35256000  1.0
  Ni  Ni97  1  0.68993333  0.65574667  0.35256000  1.0
  Ni  Ni98  1  0.68993333  0.98908000  0.35256000  1.0
  Ni  Ni99  1  0.18993333  0.18908000  0.25256000  1.0
  Ni  Ni100  1  0.18993333  0.52241333  0.25256000  1.0
  Ni  Ni101  1  0.18993333  0.85574667  0.25256000  1.0
  Ni  Ni102  1  0.52326667  0.18908000  0.25256000  1.0
  Ni  Ni103  1  0.52326667  0.52241333  0.25256000  1.0
  Ni  Ni104  1  0.52326667  0.85574667  0.25256000  1.0
  Ni  Ni105  1  0.85660000  0.18908000  0.25256000  1.0
  Ni  Ni106  1  0.85660000  0.52241333  0.25256000  1.0
  Ni  Ni107  1  0.85660000  0.85574667  0.25256000  1.0
  Ni  Ni108  1  0.22673333  0.05185333  0.27464000  1.0
  Ni  Ni109  1  0.22673333  0.38518667  0.27464000  1.0
  Ni  Ni110  1  0.22673333  0.71852000  0.27464000  1.0
  Ni  Ni111  1  0.56006667  0.05185333  0.27464000  1.0
  Ni  Ni112  1  0.56006667  0.38518667  0.27464000  1.0
  Ni  Ni113  1  0.56006667  0.71852000  0.27464000  1.0
  Ni  Ni114  1  0.89340000  0.05185333  0.27464000  1.0
  Ni  Ni115  1  0.89340000  0.38518667  0.27464000  1.0
  Ni  Ni116  1  0.89340000  0.71852000  0.27464000  1.0
  Ni  Ni117  1  0.06006667  0.18518667  0.37464000  1.0
  Ni  Ni118  1  0.06006667  0.51852000  0.37464000  1.0
  Ni  Ni119  1  0.06006667  0.85185333  0.37464000  1.0
  Ni  Ni120  1  0.39340000  0.18518667  0.37464000  1.0
  Ni  Ni121  1  0.39340000  0.51852000  0.37464000  1.0
  Ni  Ni122  1  0.39340000  0.85185333  0.37464000  1.0
  Ni  Ni123  1  0.72673333  0.18518667  0.37464000  1.0
  Ni  Ni124  1  0.72673333  0.51852000  0.37464000  1.0
  Ni  Ni125  1  0.72673333  0.85185333  0.37464000  1.0
  Ni  Ni126  1  0.31006667  0.14425333  0.24744000  1.0
  Ni  Ni127  1  0.31006667  0.47758667  0.24744000  1.0
  Ni  Ni128  1  0.31006667  0.81092000  0.24744000  1.0
  Ni  Ni129  1  0.64340000  0.14425333  0.24744000  1.0
  Ni  Ni130  1  0.64340000  0.47758667  0.24744000  1.0
  Ni  Ni131  1  0.64340000  0.81092000  0.24744000  1.0
  Ni  Ni132  1  0.97673333  0.14425333  0.24744000  1.0
  Ni  Ni133  1  0.97673333  0.47758667  0.24744000  1.0
  Ni  Ni134  1  0.97673333  0.81092000  0.24744000  1.0
  Ni  Ni135  1  0.14340000  0.27758667  0.34744000  1.0
  Ni  Ni136  1  0.14340000  0.61092000  0.34744000  1.0
  Ni  Ni137  1  0.14340000  0.94425333  0.34744000  1.0
  Ni  Ni138  1  0.47673333  0.27758667  0.34744000  1.0
  Ni  Ni139  1  0.47673333  0.61092000  0.34744000  1.0
  Ni  Ni140  1  0.47673333  0.94425333  0.34744000  1.0
  Ni  Ni141  1  0.81006667  0.27758667  0.34744000  1.0
  Ni  Ni142  1  0.81006667  0.61092000  0.34744000  1.0
  Ni  Ni143  1  0.81006667  0.94425333  0.34744000  1.0
  Y  Y144  1  0.10203250  0.07819320  0.13893490  1.0
  Y  Y145  1  0.10203250  0.41152653  0.13893490  1.0
  Y  Y146  1  0.10203250  0.74485987  0.13893490  1.0
  Y  Y147  1  0.43536583  0.07819320  0.13893490  1.0
  Y  Y148  1  0.43536583  0.41152653  0.13893490  1.0
  Y  Y149  1  0.43536583  0.74485987  0.13893490  1.0
  Y  Y150  1  0.76869917  0.07819320  0.13893490  1.0
  Y  Y151  1  0.76869917  0.41152653  0.13893490  1.0
  Y  Y152  1  0.76869917  0.74485987  0.13893490  1.0
  Y  Y153  1  0.26869917  0.27819320  0.03893490  1.0
  Y  Y154  1  0.26869917  0.61152653  0.03893490  1.0
  Y  Y155  1  0.26869917  0.94485987  0.03893490  1.0
  Y  Y156  1  0.60203250  0.27819320  0.03893490  1.0
  Y  Y157  1  0.60203250  0.61152653  0.03893490  1.0
  Y  Y158  1  0.60203250  0.94485987  0.03893490  1.0
  Y  Y159  1  0.93536583  0.27819320  0.03893490  1.0
  Y  Y160  1  0.93536583  0.61152653  0.03893490  1.0
  Y  Y161  1  0.93536583  0.94485987  0.03893490  1.0
  Y  Y162  1  0.29117150  0.06970333  0.09698750  1.0
  Y  Y163  1  0.29117150  0.40303667  0.09698750  1.0
  Y  Y164  1  0.29117150  0.73637000  0.09698750  1.0
  Y  Y165  1  0.62450483  0.06970333  0.09698750  1.0
  Y  Y166  1  0.62450483  0.40303667  0.09698750  1.0
  Y  Y167  1  0.62450483  0.73637000  0.09698750  1.0
  Y  Y168  1  0.95783817  0.06970333  0.09698750  1.0
  Y  Y169  1  0.95783817  0.40303667  0.09698750  1.0
  Y  Y170  1  0.95783817  0.73637000  0.09698750  1.0
  Y  Y171  1  0.12450483  0.20303667  0.19698750  1.0
  Y  Y172  1  0.12450483  0.53637000  0.19698750  1.0
  Y  Y173  1  0.12450483  0.86970333  0.19698750  1.0
  Y  Y174  1  0.45783817  0.20303667  0.19698750  1.0
  Y  Y175  1  0.45783817  0.53637000  0.19698750  1.0
  Y  Y176  1  0.45783817  0.86970333  0.19698750  1.0
  Y  Y177  1  0.79117150  0.20303667  0.19698750  1.0
  Y  Y178  1  0.79117150  0.53637000  0.19698750  1.0
  Y  Y179  1  0.79117150  0.86970333  0.19698750  1.0
  Y  Y180  1  0.29216183  0.13978467  0.02454850  1.0
  Y  Y181  1  0.29216183  0.47311800  0.02454850  1.0
  Y  Y182  1  0.29216183  0.80645133  0.02454850  1.0
  Y  Y183  1  0.62549517  0.13978467  0.02454850  1.0
  Y  Y184  1  0.62549517  0.47311800  0.02454850  1.0
  Y  Y185  1  0.62549517  0.80645133  0.02454850  1.0
  Y  Y186  1  0.95882850  0.13978467  0.02454850  1.0
  Y  Y187  1  0.95882850  0.47311800  0.02454850  1.0
  Y  Y188  1  0.95882850  0.80645133  0.02454850  1.0
  Y  Y189  1  0.12549517  0.27311800  0.12454850  1.0
  Y  Y190  1  0.12549517  0.60645133  0.12454850  1.0
  Y  Y191  1  0.12549517  0.93978467  0.12454850  1.0
  Y  Y192  1  0.45882850  0.27311800  0.12454850  1.0
  Y  Y193  1  0.45882850  0.60645133  0.12454850  1.0
  Y  Y194  1  0.45882850  0.93978467  0.12454850  1.0
  Y  Y195  1  0.79216183  0.27311800  0.12454850  1.0
  Y  Y196  1  0.79216183  0.60645133  0.12454850  1.0
  Y  Y197  1  0.79216183  0.93978467  0.12454850  1.0
  Y  Y198  1  0.31463417  0.24565213  0.13952910  1.0
  Y  Y199  1  0.31463417  0.57898547  0.13952910  1.0
  Y  Y200  1  0.31463417  0.91231880  0.13952910  1.0
  Y  Y201  1  0.64796750  0.24565213  0.13952910  1.0
  Y  Y202  1  0.64796750  0.57898547  0.13952910  1.0
  Y  Y203  1  0.64796750  0.91231880  0.13952910  1.0
  Y  Y204  1  0.98130083  0.24565213  0.13952910  1.0
  Y  Y205  1  0.98130083  0.57898547  0.13952910  1.0
  Y  Y206  1  0.98130083  0.91231880  0.13952910  1.0
  Y  Y207  1  0.14796750  0.11231880  0.03952910  1.0
  Y  Y208  1  0.14796750  0.44565213  0.03952910  1.0
  Y  Y209  1  0.14796750  0.77898547  0.03952910  1.0
  Y  Y210  1  0.48130083  0.11231880  0.03952910  1.0
  Y  Y211  1  0.48130083  0.44565213  0.03952910  1.0
  Y  Y212  1  0.48130083  0.77898547  0.03952910  1.0
  Y  Y213  1  0.81463417  0.11231880  0.03952910  1.0
  Y  Y214  1  0.81463417  0.44565213  0.03952910  1.0
  Y  Y215  1  0.81463417  0.77898547  0.03952910  1.0
  Y  Y216  1  0.23130083  0.18847347  0.06106510  1.0
  Y  Y217  1  0.23130083  0.52180680  0.06106510  1.0
  Y  Y218  1  0.23130083  0.85514013  0.06106510  1.0
  Y  Y219  1  0.56463417  0.18847347  0.06106510  1.0
  Y  Y220  1  0.56463417  0.52180680  0.06106510  1.0
  Y  Y221  1  0.56463417  0.85514013  0.06106510  1.0
  Y  Y222  1  0.89796750  0.18847347  0.06106510  1.0
  Y  Y223  1  0.89796750  0.52180680  0.06106510  1.0
  Y  Y224  1  0.89796750  0.85514013  0.06106510  1.0
  Y  Y225  1  0.06463417  0.32180680  0.16106510  1.0
  Y  Y226  1  0.06463417  0.65514013  0.16106510  1.0
  Y  Y227  1  0.06463417  0.98847347  0.16106510  1.0
  Y  Y228  1  0.39796750  0.32180680  0.16106510  1.0
  Y  Y229  1  0.39796750  0.65514013  0.16106510  1.0
  Y  Y230  1  0.39796750  0.98847347  0.16106510  1.0
  Y  Y231  1  0.73130083  0.32180680  0.16106510  1.0
  Y  Y232  1  0.73130083  0.65514013  0.16106510  1.0
  Y  Y233  1  0.73130083  0.98847347  0.16106510  1.0
  Y  Y234  1  0.04216183  0.19696333  0.10301250  1.0
  Y  Y235  1  0.04216183  0.53029667  0.10301250  1.0
  Y  Y236  1  0.04216183  0.86363000  0.10301250  1.0
  Y  Y237  1  0.37549517  0.19696333  0.10301250  1.0
  Y  Y238  1  0.37549517  0.53029667  0.10301250  1.0
  Y  Y239  1  0.37549517  0.86363000  0.10301250  1.0
  Y  Y240  1  0.70882850  0.19696333  0.10301250  1.0
  Y  Y241  1  0.70882850  0.53029667  0.10301250  1.0
  Y  Y242  1  0.70882850  0.86363000  0.10301250  1.0
  Y  Y243  1  0.20882850  0.06363000  0.00301250  1.0
  Y  Y244  1  0.20882850  0.39696333  0.00301250  1.0
  Y  Y245  1  0.20882850  0.73029667  0.00301250  1.0
  Y  Y246  1  0.54216183  0.06363000  0.00301250  1.0
  Y  Y247  1  0.54216183  0.39696333  0.00301250  1.0
  Y  Y248  1  0.54216183  0.73029667  0.00301250  1.0
  Y  Y249  1  0.87549517  0.06363000  0.00301250  1.0
  Y  Y250  1  0.87549517  0.39696333  0.00301250  1.0
  Y  Y251  1  0.87549517  0.73029667  0.00301250  1.0
  Y  Y252  1  0.04117150  0.12688200  0.17545150  1.0
  Y  Y253  1  0.04117150  0.46021533  0.17545150  1.0
  Y  Y254  1  0.04117150  0.79354867  0.17545150  1.0
  Y  Y255  1  0.37450483  0.12688200  0.17545150  1.0
  Y  Y256  1  0.37450483  0.46021533  0.17545150  1.0
  Y  Y257  1  0.37450483  0.79354867  0.17545150  1.0
  Y  Y258  1  0.70783817  0.12688200  0.17545150  1.0
  Y  Y259  1  0.70783817  0.46021533  0.17545150  1.0
  Y  Y260  1  0.70783817  0.79354867  0.17545150  1.0
  Y  Y261  1  0.20783817  0.32688200  0.07545150  1.0
  Y  Y262  1  0.20783817  0.66021533  0.07545150  1.0
  Y  Y263  1  0.20783817  0.99354867  0.07545150  1.0
  Y  Y264  1  0.54117150  0.32688200  0.07545150  1.0
  Y  Y265  1  0.54117150  0.66021533  0.07545150  1.0
  Y  Y266  1  0.54117150  0.99354867  0.07545150  1.0
  Y  Y267  1  0.87450483  0.32688200  0.07545150  1.0
  Y  Y268  1  0.87450483  0.66021533  0.07545150  1.0
  Y  Y269  1  0.87450483  0.99354867  0.07545150  1.0
  Y  Y270  1  0.01869917  0.02101453  0.06047090  1.0
  Y  Y271  1  0.01869917  0.35434787  0.06047090  1.0
  Y  Y272  1  0.01869917  0.68768120  0.06047090  1.0
  Y  Y273  1  0.35203250  0.02101453  0.06047090  1.0
  Y  Y274  1  0.35203250  0.35434787  0.06047090  1.0
  Y  Y275  1  0.35203250  0.68768120  0.06047090  1.0
  Y  Y276  1  0.68536583  0.02101453  0.06047090  1.0
  Y  Y277  1  0.68536583  0.35434787  0.06047090  1.0
  Y  Y278  1  0.68536583  0.68768120  0.06047090  1.0
  Y  Y279  1  0.18536583  0.15434787  0.16047090  1.0
  Y  Y280  1  0.18536583  0.48768120  0.16047090  1.0
  Y  Y281  1  0.18536583  0.82101453  0.16047090  1.0
  Y  Y282  1  0.51869917  0.15434787  0.16047090  1.0
  Y  Y283  1  0.51869917  0.48768120  0.16047090  1.0
  Y  Y284  1  0.51869917  0.82101453  0.16047090  1.0
  Y  Y285  1  0.85203250  0.15434787  0.16047090  1.0
  Y  Y286  1  0.85203250  0.48768120  0.16047090  1.0
  Y  Y287  1  0.85203250  0.82101453  0.16047090  1.0
  Y  Y288  1  0.04759433  0.11447900  0.04934600  1.0
  Y  Y289  1  0.04759433  0.44781233  0.04934600  1.0
  Y  Y290  1  0.04759433  0.78114567  0.04934600  1.0
  Y  Y291  1  0.38092767  0.11447900  0.04934600  1.0
  Y  Y292  1  0.38092767  0.44781233  0.04934600  1.0
  Y  Y293  1  0.38092767  0.78114567  0.04934600  1.0
  Y  Y294  1  0.71426100  0.11447900  0.04934600  1.0
  Y  Y295  1  0.71426100  0.44781233  0.04934600  1.0
  Y  Y296  1  0.71426100  0.78114567  0.04934600  1.0
  Y  Y297  1  0.21426100  0.24781233  0.14934600  1.0
  Y  Y298  1  0.21426100  0.58114567  0.14934600  1.0
  Y  Y299  1  0.21426100  0.91447900  0.14934600  1.0
  Y  Y300  1  0.54759433  0.24781233  0.14934600  1.0
  Y  Y301  1  0.54759433  0.58114567  0.14934600  1.0
  Y  Y302  1  0.54759433  0.91447900  0.14934600  1.0
  Y  Y303  1  0.88092767  0.24781233  0.14934600  1.0
  Y  Y304  1  0.88092767  0.58114567  0.14934600  1.0
  Y  Y305  1  0.88092767  0.91447900  0.14934600  1.0
  Y  Y306  1  0.29759433  0.32833860  0.15776720  1.0
  Y  Y307  1  0.29759433  0.66167193  0.15776720  1.0
  Y  Y308  1  0.29759433  0.99500527  0.15776720  1.0
  Y  Y309  1  0.63092767  0.32833860  0.15776720  1.0
  Y  Y310  1  0.63092767  0.66167193  0.15776720  1.0
  Y  Y311  1  0.63092767  0.99500527  0.15776720  1.0
  Y  Y312  1  0.96426100  0.32833860  0.15776720  1.0
  Y  Y313  1  0.96426100  0.66167193  0.15776720  1.0
  Y  Y314  1  0.96426100  0.99500527  0.15776720  1.0
  Y  Y315  1  0.13092767  0.19500527  0.05776720  1.0
  Y  Y316  1  0.13092767  0.52833860  0.05776720  1.0
  Y  Y317  1  0.13092767  0.86167193  0.05776720  1.0
  Y  Y318  1  0.46426100  0.19500527  0.05776720  1.0
  Y  Y319  1  0.46426100  0.52833860  0.05776720  1.0
  Y  Y320  1  0.46426100  0.86167193  0.05776720  1.0
  Y  Y321  1  0.79759433  0.19500527  0.05776720  1.0
  Y  Y322  1  0.79759433  0.52833860  0.05776720  1.0
  Y  Y323  1  0.79759433  0.86167193  0.05776720  1.0
  Y  Y324  1  0.28573900  0.15218767  0.15065400  1.0
  Y  Y325  1  0.28573900  0.48552100  0.15065400  1.0
  Y  Y326  1  0.28573900  0.81885433  0.15065400  1.0
  Y  Y327  1  0.61907233  0.15218767  0.15065400  1.0
  Y  Y328  1  0.61907233  0.48552100  0.15065400  1.0
  Y  Y329  1  0.61907233  0.81885433  0.15065400  1.0
  Y  Y330  1  0.95240567  0.15218767  0.15065400  1.0
  Y  Y331  1  0.95240567  0.48552100  0.15065400  1.0
  Y  Y332  1  0.95240567  0.81885433  0.15065400  1.0
  Y  Y333  1  0.11907233  0.01885433  0.05065400  1.0
  Y  Y334  1  0.11907233  0.35218767  0.05065400  1.0
  Y  Y335  1  0.11907233  0.68552100  0.05065400  1.0
  Y  Y336  1  0.45240567  0.01885433  0.05065400  1.0
  Y  Y337  1  0.45240567  0.35218767  0.05065400  1.0
  Y  Y338  1  0.45240567  0.68552100  0.05065400  1.0
  Y  Y339  1  0.78573900  0.01885433  0.05065400  1.0
  Y  Y340  1  0.78573900  0.35218767  0.05065400  1.0
  Y  Y341  1  0.78573900  0.68552100  0.05065400  1.0
  Y  Y342  1  0.03573900  0.27166140  0.04223280  1.0
  Y  Y343  1  0.03573900  0.60499473  0.04223280  1.0
  Y  Y344  1  0.03573900  0.93832807  0.04223280  1.0
  Y  Y345  1  0.36907233  0.27166140  0.04223280  1.0
  Y  Y346  1  0.36907233  0.60499473  0.04223280  1.0
  Y  Y347  1  0.36907233  0.93832807  0.04223280  1.0
  Y  Y348  1  0.70240567  0.27166140  0.04223280  1.0
  Y  Y349  1  0.70240567  0.60499473  0.04223280  1.0
  Y  Y350  1  0.70240567  0.93832807  0.04223280  1.0
  Y  Y351  1  0.20240567  0.07166140  0.14223280  1.0
  Y  Y352  1  0.20240567  0.40499473  0.14223280  1.0
  Y  Y353  1  0.20240567  0.73832807  0.14223280  1.0
  Y  Y354  1  0.53573900  0.07166140  0.14223280  1.0
  Y  Y355  1  0.53573900  0.40499473  0.14223280  1.0
  Y  Y356  1  0.53573900  0.73832807  0.14223280  1.0
  Y  Y357  1  0.86907233  0.07166140  0.14223280  1.0
  Y  Y358  1  0.86907233  0.40499473  0.14223280  1.0
  Y  Y359  1  0.86907233  0.73832807  0.14223280  1.0
  Y  Y360  1  0.10203250  0.01152653  0.33893490  1.0
  Y  Y361  1  0.10203250  0.34485987  0.33893490  1.0
  Y  Y362  1  0.10203250  0.67819320  0.33893490  1.0
  Y  Y363  1  0.43536583  0.01152653  0.33893490  1.0
  Y  Y364  1  0.43536583  0.34485987  0.33893490  1.0
  Y  Y365  1  0.43536583  0.67819320  0.33893490  1.0
  Y  Y366  1  0.76869917  0.01152653  0.33893490  1.0
  Y  Y367  1  0.76869917  0.34485987  0.33893490  1.0
  Y  Y368  1  0.76869917  0.67819320  0.33893490  1.0
  Y  Y369  1  0.26869917  0.21152653  0.23893490  1.0
  Y  Y370  1  0.26869917  0.54485987  0.23893490  1.0
  Y  Y371  1  0.26869917  0.87819320  0.23893490  1.0
  Y  Y372  1  0.60203250  0.21152653  0.23893490  1.0
  Y  Y373  1  0.60203250  0.54485987  0.23893490  1.0
  Y  Y374  1  0.60203250  0.87819320  0.23893490  1.0
  Y  Y375  1  0.93536583  0.21152653  0.23893490  1.0
  Y  Y376  1  0.93536583  0.54485987  0.23893490  1.0
  Y  Y377  1  0.93536583  0.87819320  0.23893490  1.0
  Y  Y378  1  0.29117150  0.00303667  0.29698750  1.0
  Y  Y379  1  0.29117150  0.33637000  0.29698750  1.0
  Y  Y380  1  0.29117150  0.66970333  0.29698750  1.0
  Y  Y381  1  0.62450483  0.00303667  0.29698750  1.0
  Y  Y382  1  0.62450483  0.33637000  0.29698750  1.0
  Y  Y383  1  0.62450483  0.66970333  0.29698750  1.0
  Y  Y384  1  0.95783817  0.00303667  0.29698750  1.0
  Y  Y385  1  0.95783817  0.33637000  0.29698750  1.0
  Y  Y386  1  0.95783817  0.66970333  0.29698750  1.0
  Y  Y387  1  0.12450483  0.13637000  0.39698750  1.0
  Y  Y388  1  0.12450483  0.46970333  0.39698750  1.0
  Y  Y389  1  0.12450483  0.80303667  0.39698750  1.0
  Y  Y390  1  0.45783817  0.13637000  0.39698750  1.0
  Y  Y391  1  0.45783817  0.46970333  0.39698750  1.0
  Y  Y392  1  0.45783817  0.80303667  0.39698750  1.0
  Y  Y393  1  0.79117150  0.13637000  0.39698750  1.0
  Y  Y394  1  0.79117150  0.46970333  0.39698750  1.0
  Y  Y395  1  0.79117150  0.80303667  0.39698750  1.0
  Y  Y396  1  0.29216183  0.07311800  0.22454850  1.0
  Y  Y397  1  0.29216183  0.40645133  0.22454850  1.0
  Y  Y398  1  0.29216183  0.73978467  0.22454850  1.0
  Y  Y399  1  0.62549517  0.07311800  0.22454850  1.0
  Y  Y400  1  0.62549517  0.40645133  0.22454850  1.0
  Y  Y401  1  0.62549517  0.73978467  0.22454850  1.0
  Y  Y402  1  0.95882850  0.07311800  0.22454850  1.0
  Y  Y403  1  0.95882850  0.40645133  0.22454850  1.0
  Y  Y404  1  0.95882850  0.73978467  0.22454850  1.0
  Y  Y405  1  0.12549517  0.20645133  0.32454850  1.0
  Y  Y406  1  0.12549517  0.53978467  0.32454850  1.0
  Y  Y407  1  0.12549517  0.87311800  0.32454850  1.0
  Y  Y408  1  0.45882850  0.20645133  0.32454850  1.0
  Y  Y409  1  0.45882850  0.53978467  0.32454850  1.0
  Y  Y410  1  0.45882850  0.87311800  0.32454850  1.0
  Y  Y411  1  0.79216183  0.20645133  0.32454850  1.0
  Y  Y412  1  0.79216183  0.53978467  0.32454850  1.0
  Y  Y413  1  0.79216183  0.87311800  0.32454850  1.0
  Y  Y414  1  0.31463417  0.17898547  0.33952910  1.0
  Y  Y415  1  0.31463417  0.51231880  0.33952910  1.0
  Y  Y416  1  0.31463417  0.84565213  0.33952910  1.0
  Y  Y417  1  0.64796750  0.17898547  0.33952910  1.0
  Y  Y418  1  0.64796750  0.51231880  0.33952910  1.0
  Y  Y419  1  0.64796750  0.84565213  0.33952910  1.0
  Y  Y420  1  0.98130083  0.17898547  0.33952910  1.0
  Y  Y421  1  0.98130083  0.51231880  0.33952910  1.0
  Y  Y422  1  0.98130083  0.84565213  0.33952910  1.0
  Y  Y423  1  0.14796750  0.04565213  0.23952910  1.0
  Y  Y424  1  0.14796750  0.37898547  0.23952910  1.0
  Y  Y425  1  0.14796750  0.71231880  0.23952910  1.0
  Y  Y426  1  0.48130083  0.04565213  0.23952910  1.0
  Y  Y427  1  0.48130083  0.37898547  0.23952910  1.0
  Y  Y428  1  0.48130083  0.71231880  0.23952910  1.0
  Y  Y429  1  0.81463417  0.04565213  0.23952910  1.0
  Y  Y430  1  0.81463417  0.37898547  0.23952910  1.0
  Y  Y431  1  0.81463417  0.71231880  0.23952910  1.0
  Y  Y432  1  0.23130083  0.12180680  0.26106510  1.0
  Y  Y433  1  0.23130083  0.45514013  0.26106510  1.0
  Y  Y434  1  0.23130083  0.78847347  0.26106510  1.0
  Y  Y435  1  0.56463417  0.12180680  0.26106510  1.0
  Y  Y436  1  0.56463417  0.45514013  0.26106510  1.0
  Y  Y437  1  0.56463417  0.78847347  0.26106510  1.0
  Y  Y438  1  0.89796750  0.12180680  0.26106510  1.0
  Y  Y439  1  0.89796750  0.45514013  0.26106510  1.0
  Y  Y440  1  0.89796750  0.78847347  0.26106510  1.0
  Y  Y441  1  0.06463417  0.25514013  0.36106510  1.0
  Y  Y442  1  0.06463417  0.58847347  0.36106510  1.0
  Y  Y443  1  0.06463417  0.92180680  0.36106510  1.0
  Y  Y444  1  0.39796750  0.25514013  0.36106510  1.0
  Y  Y445  1  0.39796750  0.58847347  0.36106510  1.0
  Y  Y446  1  0.39796750  0.92180680  0.36106510  1.0
  Y  Y447  1  0.73130083  0.25514013  0.36106510  1.0
  Y  Y448  1  0.73130083  0.58847347  0.36106510  1.0
  Y  Y449  1  0.73130083  0.92180680  0.36106510  1.0
  Y  Y450  1  0.04216183  0.13029667  0.30301250  1.0
  Y  Y451  1  0.04216183  0.46363000  0.30301250  1.0
  Y  Y452  1  0.04216183  0.79696333  0.30301250  1.0
  Y  Y453  1  0.37549517  0.13029667  0.30301250  1.0
  Y  Y454  1  0.37549517  0.46363000  0.30301250  1.0
  Y  Y455  1  0.37549517  0.79696333  0.30301250  1.0
  Y  Y456  1  0.70882850  0.13029667  0.30301250  1.0
  Y  Y457  1  0.70882850  0.46363000  0.30301250  1.0
  Y  Y458  1  0.70882850  0.79696333  0.30301250  1.0
  Y  Y459  1  0.20882850  0.33029667  0.20301250  1.0
  Y  Y460  1  0.20882850  0.66363000  0.20301250  1.0
  Y  Y461  1  0.20882850  0.99696333  0.20301250  1.0
  Y  Y462  1  0.54216183  0.33029667  0.20301250  1.0
  Y  Y463  1  0.54216183  0.66363000  0.20301250  1.0
  Y  Y464  1  0.54216183  0.99696333  0.20301250  1.0
  Y  Y465  1  0.87549517  0.33029667  0.20301250  1.0
  Y  Y466  1  0.87549517  0.66363000  0.20301250  1.0
  Y  Y467  1  0.87549517  0.99696333  0.20301250  1.0
  Y  Y468  1  0.04117150  0.06021533  0.37545150  1.0
  Y  Y469  1  0.04117150  0.39354867  0.37545150  1.0
  Y  Y470  1  0.04117150  0.72688200  0.37545150  1.0
  Y  Y471  1  0.37450483  0.06021533  0.37545150  1.0
  Y  Y472  1  0.37450483  0.39354867  0.37545150  1.0
  Y  Y473  1  0.37450483  0.72688200  0.37545150  1.0
  Y  Y474  1  0.70783817  0.06021533  0.37545150  1.0
  Y  Y475  1  0.70783817  0.39354867  0.37545150  1.0
  Y  Y476  1  0.70783817  0.72688200  0.37545150  1.0
  Y  Y477  1  0.20783817  0.26021533  0.27545150  1.0
  Y  Y478  1  0.20783817  0.59354867  0.27545150  1.0
  Y  Y479  1  0.20783817  0.92688200  0.27545150  1.0
  Y  Y480  1  0.54117150  0.26021533  0.27545150  1.0
  Y  Y481  1  0.54117150  0.59354867  0.27545150  1.0
  Y  Y482  1  0.54117150  0.92688200  0.27545150  1.0
  Y  Y483  1  0.87450483  0.26021533  0.27545150  1.0
  Y  Y484  1  0.87450483  0.59354867  0.27545150  1.0
  Y  Y485  1  0.87450483  0.92688200  0.27545150  1.0
  Y  Y486  1  0.01869917  0.28768120  0.26047090  1.0
  Y  Y487  1  0.01869917  0.62101453  0.26047090  1.0
  Y  Y488  1  0.01869917  0.95434787  0.26047090  1.0
  Y  Y489  1  0.35203250  0.28768120  0.26047090  1.0
  Y  Y490  1  0.35203250  0.62101453  0.26047090  1.0
  Y  Y491  1  0.35203250  0.95434787  0.26047090  1.0
  Y  Y492  1  0.68536583  0.28768120  0.26047090  1.0
  Y  Y493  1  0.68536583  0.62101453  0.26047090  1.0
  Y  Y494  1  0.68536583  0.95434787  0.26047090  1.0
  Y  Y495  1  0.18536583  0.08768120  0.36047090  1.0
  Y  Y496  1  0.18536583  0.42101453  0.36047090  1.0
  Y  Y497  1  0.18536583  0.75434787  0.36047090  1.0
  Y  Y498  1  0.51869917  0.08768120  0.36047090  1.0
  Y  Y499  1  0.51869917  0.42101453  0.36047090  1.0
  Y  Y500  1  0.51869917  0.75434787  0.36047090  1.0
  Y  Y501  1  0.85203250  0.08768120  0.36047090  1.0
  Y  Y502  1  0.85203250  0.42101453  0.36047090  1.0
  Y  Y503  1  0.85203250  0.75434787  0.36047090  1.0
  Y  Y504  1  0.04759433  0.04781233  0.24934600  1.0
  Y  Y505  1  0.04759433  0.38114567  0.24934600  1.0
  Y  Y506  1  0.04759433  0.71447900  0.24934600  1.0
  Y  Y507  1  0.38092767  0.04781233  0.24934600  1.0
  Y  Y508  1  0.38092767  0.38114567  0.24934600  1.0
  Y  Y509  1  0.38092767  0.71447900  0.24934600  1.0
  Y  Y510  1  0.71426100  0.04781233  0.24934600  1.0
  Y  Y511  1  0.71426100  0.38114567  0.24934600  1.0
  Y  Y512  1  0.71426100  0.71447900  0.24934600  1.0
  Y  Y513  1  0.21426100  0.18114567  0.34934600  1.0
  Y  Y514  1  0.21426100  0.51447900  0.34934600  1.0
  Y  Y515  1  0.21426100  0.84781233  0.34934600  1.0
  Y  Y516  1  0.54759433  0.18114567  0.34934600  1.0
  Y  Y517  1  0.54759433  0.51447900  0.34934600  1.0
  Y  Y518  1  0.54759433  0.84781233  0.34934600  1.0
  Y  Y519  1  0.88092767  0.18114567  0.34934600  1.0
  Y  Y520  1  0.88092767  0.51447900  0.34934600  1.0
  Y  Y521  1  0.88092767  0.84781233  0.34934600  1.0
  Y  Y522  1  0.29759433  0.26167193  0.35776720  1.0
  Y  Y523  1  0.29759433  0.59500527  0.35776720  1.0
  Y  Y524  1  0.29759433  0.92833860  0.35776720  1.0
  Y  Y525  1  0.63092767  0.26167193  0.35776720  1.0
  Y  Y526  1  0.63092767  0.59500527  0.35776720  1.0
  Y  Y527  1  0.63092767  0.92833860  0.35776720  1.0
  Y  Y528  1  0.96426100  0.26167193  0.35776720  1.0
  Y  Y529  1  0.96426100  0.59500527  0.35776720  1.0
  Y  Y530  1  0.96426100  0.92833860  0.35776720  1.0
  Y  Y531  1  0.13092767  0.12833860  0.25776720  1.0
  Y  Y532  1  0.13092767  0.46167193  0.25776720  1.0
  Y  Y533  1  0.13092767  0.79500527  0.25776720  1.0
  Y  Y534  1  0.46426100  0.12833860  0.25776720  1.0
  Y  Y535  1  0.46426100  0.46167193  0.25776720  1.0
  Y  Y536  1  0.46426100  0.79500527  0.25776720  1.0
  Y  Y537  1  0.79759433  0.12833860  0.25776720  1.0
  Y  Y538  1  0.79759433  0.46167193  0.25776720  1.0
  Y  Y539  1  0.79759433  0.79500527  0.25776720  1.0
  Y  Y540  1  0.28573900  0.08552100  0.35065400  1.0
  Y  Y541  1  0.28573900  0.41885433  0.35065400  1.0
  Y  Y542  1  0.28573900  0.75218767  0.35065400  1.0
  Y  Y543  1  0.61907233  0.08552100  0.35065400  1.0
  Y  Y544  1  0.61907233  0.41885433  0.35065400  1.0
  Y  Y545  1  0.61907233  0.75218767  0.35065400  1.0
  Y  Y546  1  0.95240567  0.08552100  0.35065400  1.0
  Y  Y547  1  0.95240567  0.41885433  0.35065400  1.0
  Y  Y548  1  0.95240567  0.75218767  0.35065400  1.0
  Y  Y549  1  0.11907233  0.28552100  0.25065400  1.0
  Y  Y550  1  0.11907233  0.61885433  0.25065400  1.0
  Y  Y551  1  0.11907233  0.95218767  0.25065400  1.0
  Y  Y552  1  0.45240567  0.28552100  0.25065400  1.0
  Y  Y553  1  0.45240567  0.61885433  0.25065400  1.0
  Y  Y554  1  0.45240567  0.95218767  0.25065400  1.0
  Y  Y555  1  0.78573900  0.28552100  0.25065400  1.0
  Y  Y556  1  0.78573900  0.61885433  0.25065400  1.0
  Y  Y557  1  0.78573900  0.95218767  0.25065400  1.0
  Y  Y558  1  0.03573900  0.20499473  0.24223280  1.0
  Y  Y559  1  0.03573900  0.53832807  0.24223280  1.0
  Y  Y560  1  0.03573900  0.87166140  0.24223280  1.0
  Y  Y561  1  0.36907233  0.20499473  0.24223280  1.0
  Y  Y562  1  0.36907233  0.53832807  0.24223280  1.0
  Y  Y563  1  0.36907233  0.87166140  0.24223280  1.0
  Y  Y564  1  0.70240567  0.20499473  0.24223280  1.0
  Y  Y565  1  0.70240567  0.53832807  0.24223280  1.0
  Y  Y566  1  0.70240567  0.87166140  0.24223280  1.0
  Y  Y567  1  0.20240567  0.00499473  0.34223280  1.0
  Y  Y568  1  0.20240567  0.33832807  0.34223280  1.0
  Y  Y569  1  0.20240567  0.67166140  0.34223280  1.0
  Y  Y570  1  0.53573900  0.00499473  0.34223280  1.0
  Y  Y571  1  0.53573900  0.33832807  0.34223280  1.0
  Y  Y572  1  0.53573900  0.67166140  0.34223280  1.0
  Y  Y573  1  0.86907233  0.00499473  0.34223280  1.0
  Y  Y574  1  0.86907233  0.33832807  0.34223280  1.0
  Y  Y575  1  0.86907233  0.67166140  0.34223280  1.0
