# generated using pymatgen
data_Y4Ni
_symmetry_space_group_name_H-M   'P 1'
_cell_length_a   22.71990090
_cell_length_b   32.13079199
_cell_length_c   30.29320120
_cell_angle_alpha   90.00000000
_cell_angle_beta   90.00000000
_cell_angle_gamma   90.00000000
_symmetry_Int_Tables_number   1
_chemical_formula_structural   Y4Ni
_chemical_formula_sum   'Y288 Ni72'
_cell_volume   22114.29163632
_cell_formula_units_Z   72
loop_
 _symmetry_equiv_pos_site_id
 _symmetry_equiv_pos_as_xyz
  1  'x, y, z'
loop_
 _atom_site_type_symbol
 _atom_site_label
 _atom_site_symmetry_multiplicity
 _atom_site_fract_x
 _atom_site_fract_y
 _atom_site_fract_z
 _atom_site_occupancy
  Ni  Ni0  1  0.33333333  0.16666667  0.77830350  1.0
  Ni  Ni1  1  0.33333333  0.50000000  0.77830350  1.0
  Ni  Ni2  1  0.33333333  0.83333333  0.77830350  1.0
  Ni  Ni3  1  0.66666667  0.16666667  0.77830350  1.0
  Ni  Ni4  1  0.66666667  0.50000000  0.77830350  1.0
  Ni  Ni5  1  0.66666667  0.83333333  0.77830350  1.0
  Ni  Ni6  1  0.00000000  0.16666667  0.77830350  1.0
  Ni  Ni7  1  1.00000000  0.50000000  0.77830350  1.0
  Ni  Ni8  1  0.00000000  0.83333333  0.77830350  1.0
  Ni  Ni9  1  0.16666667  0.33333333  0.90330350  1.0
  Ni  Ni10  1  0.16666667  0.66666667  0.90330350  1.0
  Ni  Ni11  1  0.16666667  1.00000000  0.90330350  1.0
  Ni  Ni12  1  0.50000000  0.33333333  0.90330350  1.0
  Ni  Ni13  1  0.50000000  0.66666667  0.90330350  1.0
  Ni  Ni14  1  0.50000000  1.00000000  0.90330350  1.0
  Ni  Ni15  1  0.83333333  0.33333333  0.90330350  1.0
  Ni  Ni16  1  0.83333333  0.66666667  0.90330350  1.0
  Ni  Ni17  1  0.83333333  1.00000000  0.90330350  1.0
  Ni  Ni18  1  0.33333333  0.25000000  0.90330350  1.0
  Ni  Ni19  1  0.33333333  0.58333333  0.90330350  1.0
  Ni  Ni20  1  0.33333333  0.91666667  0.90330350  1.0
  Ni  Ni21  1  0.66666667  0.25000000  0.90330350  1.0
  Ni  Ni22  1  0.66666667  0.58333333  0.90330350  1.0
  Ni  Ni23  1  0.66666667  0.91666667  0.90330350  1.0
  Ni  Ni24  1  1.00000000  0.25000000  0.90330350  1.0
  Ni  Ni25  1  1.00000000  0.58333333  0.90330350  1.0
  Ni  Ni26  1  0.00000000  0.91666667  0.90330350  1.0
  Ni  Ni27  1  0.16666667  0.08333333  0.77830350  1.0
  Ni  Ni28  1  0.16666667  0.41666667  0.77830350  1.0
  Ni  Ni29  1  0.16666667  0.75000000  0.77830350  1.0
  Ni  Ni30  1  0.50000000  0.08333333  0.77830350  1.0
  Ni  Ni31  1  0.50000000  0.41666667  0.77830350  1.0
  Ni  Ni32  1  0.50000000  0.75000000  0.77830350  1.0
  Ni  Ni33  1  0.83333333  0.08333333  0.77830350  1.0
  Ni  Ni34  1  0.83333333  0.41666667  0.77830350  1.0
  Ni  Ni35  1  0.83333333  0.75000000  0.77830350  1.0
  Ni  Ni36  1  0.33333333  0.16666667  0.52830350  1.0
  Ni  Ni37  1  0.33333333  0.50000000  0.52830350  1.0
  Ni  Ni38  1  0.33333333  0.83333333  0.52830350  1.0
  Ni  Ni39  1  0.66666667  0.16666667  0.52830350  1.0
  Ni  Ni40  1  0.66666667  0.50000000  0.52830350  1.0
  Ni  Ni41  1  0.66666667  0.83333333  0.52830350  1.0
  Ni  Ni42  1  0.00000000  0.16666667  0.52830350  1.0
  Ni  Ni43  1  1.00000000  0.50000000  0.52830350  1.0
  Ni  Ni44  1  0.00000000  0.83333333  0.52830350  1.0
  Ni  Ni45  1  0.16666667  0.33333333  0.65330350  1.0
  Ni  Ni46  1  0.16666667  0.66666667  0.65330350  1.0
  Ni  Ni47  1  0.16666667  1.00000000  0.65330350  1.0
  Ni  Ni48  1  0.50000000  0.33333333  0.65330350  1.0
  Ni  Ni49  1  0.50000000  0.66666667  0.65330350  1.0
  Ni  Ni50  1  0.50000000  1.00000000  0.65330350  1.0
  Ni  Ni51  1  0.83333333  0.33333333  0.65330350  1.0
  Ni  Ni52  1  0.83333333  0.66666667  0.65330350  1.0
  Ni  Ni53  1  0.83333333  1.00000000  0.65330350  1.0
  Ni  Ni54  1  0.33333333  0.25000000  0.65330350  1.0
  Ni  Ni55  1  0.33333333  0.58333333  0.65330350  1.0
  Ni  Ni56  1  0.33333333  0.91666667  0.65330350  1.0
  Ni  Ni57  1  0.66666667  0.25000000  0.65330350  1.0
  Ni  Ni58  1  0.66666667  0.58333333  0.65330350  1.0
  Ni  Ni59  1  0.66666667  0.91666667  0.65330350  1.0
  Ni  Ni60  1  1.00000000  0.25000000  0.65330350  1.0
  Ni  Ni61  1  1.00000000  0.58333333  0.65330350  1.0
  Ni  Ni62  1  0.00000000  0.91666667  0.65330350  1.0
  Ni  Ni63  1  0.16666667  0.08333333  0.52830350  1.0
  Ni  Ni64  1  0.16666667  0.41666667  0.52830350  1.0
  Ni  Ni65  1  0.16666667  0.75000000  0.52830350  1.0
  Ni  Ni66  1  0.50000000  0.08333333  0.52830350  1.0
  Ni  Ni67  1  0.50000000  0.41666667  0.52830350  1.0
  Ni  Ni68  1  0.50000000  0.75000000  0.52830350  1.0
  Ni  Ni69  1  0.83333333  0.08333333  0.52830350  1.0
  Ni  Ni70  1  0.83333333  0.41666667  0.52830350  1.0
  Ni  Ni71  1  0.83333333  0.75000000  0.52830350  1.0
  Y  Y72  1  0.00000000  0.29559533  0.83491050  1.0
  Y  Y73  1  0.00000000  0.62892867  0.83491050  1.0
  Y  Y74  1  0.00000000  0.96226200  0.83491050  1.0
  Y  Y75  1  0.33333333  0.29559533  0.83491050  1.0
  Y  Y76  1  0.33333333  0.62892867  0.83491050  1.0
  Y  Y77  1  0.33333333  0.96226200  0.83491050  1.0
  Y  Y78  1  0.66666667  0.29559533  0.83491050  1.0
  Y  Y79  1  0.66666667  0.62892867  0.83491050  1.0
  Y  Y80  1  0.66666667  0.96226200  0.83491050  1.0
  Y  Y81  1  0.16666667  0.12892867  0.95991050  1.0
  Y  Y82  1  0.16666667  0.46226200  0.95991050  1.0
  Y  Y83  1  0.16666667  0.79559533  0.95991050  1.0
  Y  Y84  1  0.50000000  0.12892867  0.95991050  1.0
  Y  Y85  1  0.50000000  0.46226200  0.95991050  1.0
  Y  Y86  1  0.50000000  0.79559533  0.95991050  1.0
  Y  Y87  1  0.83333333  0.12892867  0.95991050  1.0
  Y  Y88  1  0.83333333  0.46226200  0.95991050  1.0
  Y  Y89  1  0.83333333  0.79559533  0.95991050  1.0
  Y  Y90  1  0.24214267  0.20440467  0.90330350  1.0
  Y  Y91  1  0.24214267  0.53773800  0.90330350  1.0
  Y  Y92  1  0.24214267  0.87107133  0.90330350  1.0
  Y  Y93  1  0.57547600  0.20440467  0.90330350  1.0
  Y  Y94  1  0.57547600  0.53773800  0.90330350  1.0
  Y  Y95  1  0.57547600  0.87107133  0.90330350  1.0
  Y  Y96  1  0.90880933  0.20440467  0.90330350  1.0
  Y  Y97  1  0.90880933  0.53773800  0.90330350  1.0
  Y  Y98  1  0.90880933  0.87107133  0.90330350  1.0
  Y  Y99  1  0.07547600  0.03773800  0.77830350  1.0
  Y  Y100  1  0.07547600  0.37107133  0.77830350  1.0
  Y  Y101  1  0.07547600  0.70440467  0.77830350  1.0
  Y  Y102  1  0.40880933  0.03773800  0.77830350  1.0
  Y  Y103  1  0.40880933  0.37107133  0.77830350  1.0
  Y  Y104  1  0.40880933  0.70440467  0.77830350  1.0
  Y  Y105  1  0.74214267  0.03773800  0.77830350  1.0
  Y  Y106  1  0.74214267  0.37107133  0.77830350  1.0
  Y  Y107  1  0.74214267  0.70440467  0.77830350  1.0
  Y  Y108  1  0.09119067  0.20440467  0.90330350  1.0
  Y  Y109  1  0.09119067  0.53773800  0.90330350  1.0
  Y  Y110  1  0.09119067  0.87107133  0.90330350  1.0
  Y  Y111  1  0.42452400  0.20440467  0.90330350  1.0
  Y  Y112  1  0.42452400  0.53773800  0.90330350  1.0
  Y  Y113  1  0.42452400  0.87107133  0.90330350  1.0
  Y  Y114  1  0.75785733  0.20440467  0.90330350  1.0
  Y  Y115  1  0.75785733  0.53773800  0.90330350  1.0
  Y  Y116  1  0.75785733  0.87107133  0.90330350  1.0
  Y  Y117  1  0.25785733  0.03773800  0.77830350  1.0
  Y  Y118  1  0.25785733  0.37107133  0.77830350  1.0
  Y  Y119  1  0.25785733  0.70440467  0.77830350  1.0
  Y  Y120  1  0.59119067  0.03773800  0.77830350  1.0
  Y  Y121  1  0.59119067  0.37107133  0.77830350  1.0
  Y  Y122  1  0.59119067  0.70440467  0.77830350  1.0
  Y  Y123  1  0.92452400  0.03773800  0.77830350  1.0
  Y  Y124  1  0.92452400  0.37107133  0.77830350  1.0
  Y  Y125  1  0.92452400  0.70440467  0.77830350  1.0
  Y  Y126  1  0.09119067  0.21226200  0.77830350  1.0
  Y  Y127  1  0.09119067  0.54559533  0.77830350  1.0
  Y  Y128  1  0.09119067  0.87892867  0.77830350  1.0
  Y  Y129  1  0.42452400  0.21226200  0.77830350  1.0
  Y  Y130  1  0.42452400  0.54559533  0.77830350  1.0
  Y  Y131  1  0.42452400  0.87892867  0.77830350  1.0
  Y  Y132  1  0.75785733  0.21226200  0.77830350  1.0
  Y  Y133  1  0.75785733  0.54559533  0.77830350  1.0
  Y  Y134  1  0.75785733  0.87892867  0.77830350  1.0
  Y  Y135  1  0.25785733  0.04559533  0.90330350  1.0
  Y  Y136  1  0.25785733  0.37892867  0.90330350  1.0
  Y  Y137  1  0.25785733  0.71226200  0.90330350  1.0
  Y  Y138  1  0.59119067  0.04559533  0.90330350  1.0
  Y  Y139  1  0.59119067  0.37892867  0.90330350  1.0
  Y  Y140  1  0.59119067  0.71226200  0.90330350  1.0
  Y  Y141  1  0.92452400  0.04559533  0.90330350  1.0
  Y  Y142  1  0.92452400  0.37892867  0.90330350  1.0
  Y  Y143  1  0.92452400  0.71226200  0.90330350  1.0
  Y  Y144  1  0.00000000  0.12107133  0.84669650  1.0
  Y  Y145  1  0.00000000  0.45440467  0.84669650  1.0
  Y  Y146  1  0.00000000  0.78773800  0.84669650  1.0
  Y  Y147  1  0.33333333  0.12107133  0.84669650  1.0
  Y  Y148  1  0.33333333  0.45440467  0.84669650  1.0
  Y  Y149  1  0.33333333  0.78773800  0.84669650  1.0
  Y  Y150  1  0.66666667  0.12107133  0.84669650  1.0
  Y  Y151  1  0.66666667  0.45440467  0.84669650  1.0
  Y  Y152  1  0.66666667  0.78773800  0.84669650  1.0
  Y  Y153  1  0.16666667  0.28773800  0.97169650  1.0
  Y  Y154  1  0.16666667  0.62107133  0.97169650  1.0
  Y  Y155  1  0.16666667  0.95440467  0.97169650  1.0
  Y  Y156  1  0.50000000  0.28773800  0.97169650  1.0
  Y  Y157  1  0.50000000  0.62107133  0.97169650  1.0
  Y  Y158  1  0.50000000  0.95440467  0.97169650  1.0
  Y  Y159  1  0.83333333  0.28773800  0.97169650  1.0
  Y  Y160  1  0.83333333  0.62107133  0.97169650  1.0
  Y  Y161  1  0.83333333  0.95440467  0.97169650  1.0
  Y  Y162  1  0.33333333  0.29559533  0.97169650  1.0
  Y  Y163  1  0.33333333  0.62892867  0.97169650  1.0
  Y  Y164  1  0.33333333  0.96226200  0.97169650  1.0
  Y  Y165  1  0.66666667  0.29559533  0.97169650  1.0
  Y  Y166  1  0.66666667  0.62892867  0.97169650  1.0
  Y  Y167  1  0.66666667  0.96226200  0.97169650  1.0
  Y  Y168  1  1.00000000  0.29559533  0.97169650  1.0
  Y  Y169  1  0.00000000  0.62892867  0.97169650  1.0
  Y  Y170  1  0.00000000  0.96226200  0.97169650  1.0
  Y  Y171  1  0.16666667  0.12892867  0.84669650  1.0
  Y  Y172  1  0.16666667  0.46226200  0.84669650  1.0
  Y  Y173  1  0.16666667  0.79559533  0.84669650  1.0
  Y  Y174  1  0.50000000  0.12892867  0.84669650  1.0
  Y  Y175  1  0.50000000  0.46226200  0.84669650  1.0
  Y  Y176  1  0.50000000  0.79559533  0.84669650  1.0
  Y  Y177  1  0.83333333  0.12892867  0.84669650  1.0
  Y  Y178  1  0.83333333  0.46226200  0.84669650  1.0
  Y  Y179  1  0.83333333  0.79559533  0.84669650  1.0
  Y  Y180  1  0.24214267  0.21226200  0.77830350  1.0
  Y  Y181  1  0.24214267  0.54559533  0.77830350  1.0
  Y  Y182  1  0.24214267  0.87892867  0.77830350  1.0
  Y  Y183  1  0.57547600  0.21226200  0.77830350  1.0
  Y  Y184  1  0.57547600  0.54559533  0.77830350  1.0
  Y  Y185  1  0.57547600  0.87892867  0.77830350  1.0
  Y  Y186  1  0.90880933  0.21226200  0.77830350  1.0
  Y  Y187  1  0.90880933  0.54559533  0.77830350  1.0
  Y  Y188  1  0.90880933  0.87892867  0.77830350  1.0
  Y  Y189  1  0.07547600  0.04559533  0.90330350  1.0
  Y  Y190  1  0.07547600  0.37892867  0.90330350  1.0
  Y  Y191  1  0.07547600  0.71226200  0.90330350  1.0
  Y  Y192  1  0.40880933  0.04559533  0.90330350  1.0
  Y  Y193  1  0.40880933  0.37892867  0.90330350  1.0
  Y  Y194  1  0.40880933  0.71226200  0.90330350  1.0
  Y  Y195  1  0.74214267  0.04559533  0.90330350  1.0
  Y  Y196  1  0.74214267  0.37892867  0.90330350  1.0
  Y  Y197  1  0.74214267  0.71226200  0.90330350  1.0
  Y  Y198  1  0.33333333  0.12107133  0.95991050  1.0
  Y  Y199  1  0.33333333  0.45440467  0.95991050  1.0
  Y  Y200  1  0.33333333  0.78773800  0.95991050  1.0
  Y  Y201  1  0.66666667  0.12107133  0.95991050  1.0
  Y  Y202  1  0.66666667  0.45440467  0.95991050  1.0
  Y  Y203  1  0.66666667  0.78773800  0.95991050  1.0
  Y  Y204  1  0.00000000  0.12107133  0.95991050  1.0
  Y  Y205  1  0.00000000  0.45440467  0.95991050  1.0
  Y  Y206  1  0.00000000  0.78773800  0.95991050  1.0
  Y  Y207  1  0.16666667  0.28773800  0.83491050  1.0
  Y  Y208  1  0.16666667  0.62107133  0.83491050  1.0
  Y  Y209  1  0.16666667  0.95440467  0.83491050  1.0
  Y  Y210  1  0.50000000  0.28773800  0.83491050  1.0
  Y  Y211  1  0.50000000  0.62107133  0.83491050  1.0
  Y  Y212  1  0.50000000  0.95440467  0.83491050  1.0
  Y  Y213  1  0.83333333  0.28773800  0.83491050  1.0
  Y  Y214  1  0.83333333  0.62107133  0.83491050  1.0
  Y  Y215  1  0.83333333  0.95440467  0.83491050  1.0
  Y  Y216  1  0.00000000  0.29559533  0.58491050  1.0
  Y  Y217  1  0.00000000  0.62892867  0.58491050  1.0
  Y  Y218  1  0.00000000  0.96226200  0.58491050  1.0
  Y  Y219  1  0.33333333  0.29559533  0.58491050  1.0
  Y  Y220  1  0.33333333  0.62892867  0.58491050  1.0
  Y  Y221  1  0.33333333  0.96226200  0.58491050  1.0
  Y  Y222  1  0.66666667  0.29559533  0.58491050  1.0
  Y  Y223  1  0.66666667  0.62892867  0.58491050  1.0
  Y  Y224  1  0.66666667  0.96226200  0.58491050  1.0
  Y  Y225  1  0.16666667  0.12892867  0.70991050  1.0
  Y  Y226  1  0.16666667  0.46226200  0.70991050  1.0
  Y  Y227  1  0.16666667  0.79559533  0.70991050  1.0
  Y  Y228  1  0.50000000  0.12892867  0.70991050  1.0
  Y  Y229  1  0.50000000  0.46226200  0.70991050  1.0
  Y  Y230  1  0.50000000  0.79559533  0.70991050  1.0
  Y  Y231  1  0.83333333  0.12892867  0.70991050  1.0
  Y  Y232  1  0.83333333  0.46226200  0.70991050  1.0
  Y  Y233  1  0.83333333  0.79559533  0.70991050  1.0
  Y  Y234  1  0.24214267  0.20440467  0.65330350  1.0
  Y  Y235  1  0.24214267  0.53773800  0.65330350  1.0
  Y  Y236  1  0.24214267  0.87107133  0.65330350  1.0
  Y  Y237  1  0.57547600  0.20440467  0.65330350  1.0
  Y  Y238  1  0.57547600  0.53773800  0.65330350  1.0
  Y  Y239  1  0.57547600  0.87107133  0.65330350  1.0
  Y  Y240  1  0.90880933  0.20440467  0.65330350  1.0
  Y  Y241  1  0.90880933  0.53773800  0.65330350  1.0
  Y  Y242  1  0.90880933  0.87107133  0.65330350  1.0
  Y  Y243  1  0.07547600  0.03773800  0.52830350  1.0
  Y  Y244  1  0.07547600  0.37107133  0.52830350  1.0
  Y  Y245  1  0.07547600  0.70440467  0.52830350  1.0
  Y  Y246  1  0.40880933  0.03773800  0.52830350  1.0
  Y  Y247  1  0.40880933  0.37107133  0.52830350  1.0
  Y  Y248  1  0.40880933  0.70440467  0.52830350  1.0
  Y  Y249  1  0.74214267  0.03773800  0.52830350  1.0
  Y  Y250  1  0.74214267  0.37107133  0.52830350  1.0
  Y  Y251  1  0.74214267  0.70440467  0.52830350  1.0
  Y  Y252  1  0.09119067  0.20440467  0.65330350  1.0
  Y  Y253  1  0.09119067  0.53773800  0.65330350  1.0
  Y  Y254  1  0.09119067  0.87107133  0.65330350  1.0
  Y  Y255  1  0.42452400  0.20440467  0.65330350  1.0
  Y  Y256  1  0.42452400  0.53773800  0.65330350  1.0
  Y  Y257  1  0.42452400  0.87107133  0.65330350  1.0
  Y  Y258  1  0.75785733  0.20440467  0.65330350  1.0
  Y  Y259  1  0.75785733  0.53773800  0.65330350  1.0
  Y  Y260  1  0.75785733  0.87107133  0.65330350  1.0
  Y  Y261  1  0.25785733  0.03773800  0.52830350  1.0
  Y  Y262  1  0.25785733  0.37107133  0.52830350  1.0
  Y  Y263  1  0.25785733  0.70440467  0.52830350  1.0
  Y  Y264  1  0.59119067  0.03773800  0.52830350  1.0
  Y  Y265  1  0.59119067  0.37107133  0.52830350  1.0
  Y  Y266  1  0.59119067  0.70440467  0.52830350  1.0
  Y  Y267  1  0.92452400  0.03773800  0.52830350  1.0
  Y  Y268  1  0.92452400  0.37107133  0.52830350  1.0
  Y  Y269  1  0.92452400  0.70440467  0.52830350  1.0
  Y  Y270  1  0.09119067  0.21226200  0.52830350  1.0
  Y  Y271  1  0.09119067  0.54559533  0.52830350  1.0
  Y  Y272  1  0.09119067  0.87892867  0.52830350  1.0
  Y  Y273  1  0.42452400  0.21226200  0.52830350  1.0
  Y  Y274  1  0.42452400  0.54559533  0.52830350  1.0
  Y  Y275  1  0.42452400  0.87892867  0.52830350  1.0
  Y  Y276  1  0.75785733  0.21226200  0.52830350  1.0
  Y  Y277  1  0.75785733  0.54559533  0.52830350  1.0
  Y  Y278  1  0.75785733  0.87892867  0.52830350  1.0
  Y  Y279  1  0.25785733  0.04559533  0.65330350  1.0
  Y  Y280  1  0.25785733  0.37892867  0.65330350  1.0
  Y  Y281  1  0.25785733  0.71226200  0.65330350  1.0
  Y  Y282  1  0.59119067  0.04559533  0.65330350  1.0
  Y  Y283  1  0.59119067  0.37892867  0.65330350  1.0
  Y  Y284  1  0.59119067  0.71226200  0.65330350  1.0
  Y  Y285  1  0.92452400  0.04559533  0.65330350  1.0
  Y  Y286  1  0.92452400  0.37892867  0.65330350  1.0
  Y  Y287  1  0.92452400  0.71226200  0.65330350  1.0
  Y  Y288  1  0.00000000  0.12107133  0.59669650  1.0
  Y  Y289  1  0.00000000  0.45440467  0.59669650  1.0
  Y  Y290  1  0.00000000  0.78773800  0.59669650  1.0
  Y  Y291  1  0.33333333  0.12107133  0.59669650  1.0
  Y  Y292  1  0.33333333  0.45440467  0.59669650  1.0
  Y  Y293  1  0.33333333  0.78773800  0.59669650  1.0
  Y  Y294  1  0.66666667  0.12107133  0.59669650  1.0
  Y  Y295  1  0.66666667  0.45440467  0.59669650  1.0
  Y  Y296  1  0.66666667  0.78773800  0.59669650  1.0
  Y  Y297  1  0.16666667  0.28773800  0.72169650  1.0
  Y  Y298  1  0.16666667  0.62107133  0.72169650  1.0
  Y  Y299  1  0.16666667  0.95440467  0.72169650  1.0
  Y  Y300  1  0.50000000  0.28773800  0.72169650  1.0
  Y  Y301  1  0.50000000  0.62107133  0.72169650  1.0
  Y  Y302  1  0.50000000  0.95440467  0.72169650  1.0
  Y  Y303  1  0.83333333  0.28773800  0.72169650  1.0
  Y  Y304  1  0.83333333  0.62107133  0.72169650  1.0
  Y  Y305  1  0.83333333  0.95440467  0.72169650  1.0
  Y  Y306  1  0.33333333  0.29559533  0.72169650  1.0
  Y  Y307  1  0.33333333  0.62892867  0.72169650  1.0
  Y  Y308  1  0.33333333  0.96226200  0.72169650  1.0
  Y  Y309  1  0.66666667  0.29559533  0.72169650  1.0
  Y  Y310  1  0.66666667  0.62892867  0.72169650  1.0
  Y  Y311  1  0.66666667  0.96226200  0.72169650  1.0
  Y  Y312  1  1.00000000  0.29559533  0.72169650  1.0
  Y  Y313  1  1.00000000  0.62892867  0.72169650  1.0
  Y  Y314  1  0.00000000  0.96226200  0.72169650  1.0
  Y  Y315  1  0.16666667  0.12892867  0.59669650  1.0
  Y  Y316  1  0.16666667  0.46226200  0.59669650  1.0
  Y  Y317  1  0.16666667  0.79559533  0.59669650  1.0
  Y  Y318  1  0.50000000  0.12892867  0.59669650  1.0
  Y  Y319  1  0.50000000  0.46226200  0.59669650  1.0
  Y  Y320  1  0.50000000  0.79559533  0.59669650  1.0
  Y  Y321  1  0.83333333  0.12892867  0.59669650  1.0
  Y  Y322  1  0.83333333  0.46226200  0.59669650  1.0
  Y  Y323  1  0.83333333  0.79559533  0.59669650  1.0
  Y  Y324  1  0.24214267  0.21226200  0.52830350  1.0
  Y  Y325  1  0.24214267  0.54559533  0.52830350  1.0
  Y  Y326  1  0.24214267  0.87892867  0.52830350  1.0
  Y  Y327  1  0.57547600  0.21226200  0.52830350  1.0
  Y  Y328  1  0.57547600  0.54559533  0.52830350  1.0
  Y  Y329  1  0.57547600  0.87892867  0.52830350  1.0
  Y  Y330  1  0.90880933  0.21226200  0.52830350  1.0
  Y  Y331  1  0.90880933  0.54559533  0.52830350  1.0
  Y  Y332  1  0.90880933  0.87892867  0.52830350  1.0
  Y  Y333  1  0.07547600  0.04559533  0.65330350  1.0
  Y  Y334  1  0.07547600  0.37892867  0.65330350  1.0
  Y  Y335  1  0.07547600  0.71226200  0.65330350  1.0
  Y  Y336  1  0.40880933  0.04559533  0.65330350  1.0
  Y  Y337  1  0.40880933  0.37892867  0.65330350  1.0
  Y  Y338  1  0.40880933  0.71226200  0.65330350  1.0
  Y  Y339  1  0.74214267  0.04559533  0.65330350  1.0
  Y  Y340  1  0.74214267  0.37892867  0.65330350  1.0
  Y  Y341  1  0.74214267  0.71226200  0.65330350  1.0
  Y  Y342  1  0.33333333  0.12107133  0.70991050  1.0
  Y  Y343  1  0.33333333  0.45440467  0.70991050  1.0
  Y  Y344  1  0.33333333  0.78773800  0.70991050  1.0
  Y  Y345  1  0.66666667  0.12107133  0.70991050  1.0
  Y  Y346  1  0.66666667  0.45440467  0.70991050  1.0
  Y  Y347  1  0.66666667  0.78773800  0.70991050  1.0
  Y  Y348  1  0.00000000  0.12107133  0.70991050  1.0
  Y  Y349  1  1.00000000  0.45440467  0.70991050  1.0
  Y  Y350  1  0.00000000  0.78773800  0.70991050  1.0
  Y  Y351  1  0.16666667  0.28773800  0.58491050  1.0
  Y  Y352  1  0.16666667  0.62107133  0.58491050  1.0
  Y  Y353  1  0.16666667  0.95440467  0.58491050  1.0
  Y  Y354  1  0.50000000  0.28773800  0.58491050  1.0
  Y  Y355  1  0.50000000  0.62107133  0.58491050  1.0
  Y  Y356  1  0.50000000  0.95440467  0.58491050  1.0
  Y  Y357  1  0.83333333  0.28773800  0.58491050  1.0
  Y  Y358  1  0.83333333  0.62107133  0.58491050  1.0
  Y  Y359  1  0.83333333  0.95440467  0.58491050  1.0
