# generated using pymatgen
data_Y4Ni
_symmetry_space_group_name_H-M   'P 1'
_cell_length_a   22.71990090
_cell_length_b   39.35202270
_cell_length_c   37.86650150
_cell_angle_alpha   90.00000000
_cell_angle_beta   120.00000000
_cell_angle_gamma   73.22134512
_symmetry_Int_Tables_number   1
_chemical_formula_structural   Y4Ni
_chemical_formula_sum   'Y288 Ni72'
_cell_volume   27642.86454540
_cell_formula_units_Z   72
loop_
 _symmetry_equiv_pos_site_id
 _symmetry_equiv_pos_as_xyz
  1  'x, y, z'
loop_
 _atom_site_type_symbol
 _atom_site_label
 _atom_site_symmetry_multiplicity
 _atom_site_fract_x
 _atom_site_fract_y
 _atom_site_fract_z
 _atom_site_occupancy
  Y  Y0  1  0.29559533  0.14779767  0.03089300  1.0
  Y  Y1  1  0.29559533  0.48113100  0.03089300  1.0
  Y  Y2  1  0.29559533  0.81446433  0.03089300  1.0
  Y  Y3  1  0.62892867  0.14779767  0.03089300  1.0
  Y  Y4  1  0.62892867  0.48113100  0.03089300  1.0
  Y  Y5  1  0.62892867  0.81446433  0.03089300  1.0
  Y  Y6  1  0.96226200  0.14779767  0.03089300  1.0
  Y  Y7  1  0.96226200  0.48113100  0.03089300  1.0
  Y  Y8  1  0.96226200  0.81446433  0.03089300  1.0
  Y  Y9  1  0.29559533  0.31446433  0.13089300  1.0
  Y  Y10  1  0.29559533  0.64779767  0.13089300  1.0
  Y  Y11  1  0.29559533  0.98113100  0.13089300  1.0
  Y  Y12  1  0.62892867  0.31446433  0.13089300  1.0
  Y  Y13  1  0.62892867  0.64779767  0.13089300  1.0
  Y  Y14  1  0.62892867  0.98113100  0.13089300  1.0
  Y  Y15  1  0.96226200  0.31446433  0.13089300  1.0
  Y  Y16  1  0.96226200  0.64779767  0.13089300  1.0
  Y  Y17  1  0.96226200  0.98113100  0.13089300  1.0
  Y  Y18  1  0.29559533  0.05660700  0.17617860  1.0
  Y  Y19  1  0.29559533  0.38994033  0.17617860  1.0
  Y  Y20  1  0.29559533  0.72327367  0.17617860  1.0
  Y  Y21  1  0.62892867  0.05660700  0.17617860  1.0
  Y  Y22  1  0.62892867  0.38994033  0.17617860  1.0
  Y  Y23  1  0.62892867  0.72327367  0.17617860  1.0
  Y  Y24  1  0.96226200  0.05660700  0.17617860  1.0
  Y  Y25  1  0.96226200  0.38994033  0.17617860  1.0
  Y  Y26  1  0.96226200  0.72327367  0.17617860  1.0
  Y  Y27  1  0.29559533  0.22327367  0.07617860  1.0
  Y  Y28  1  0.29559533  0.55660700  0.07617860  1.0
  Y  Y29  1  0.29559533  0.88994033  0.07617860  1.0
  Y  Y30  1  0.62892867  0.22327367  0.07617860  1.0
  Y  Y31  1  0.62892867  0.55660700  0.07617860  1.0
  Y  Y32  1  0.62892867  0.88994033  0.07617860  1.0
  Y  Y33  1  0.96226200  0.22327367  0.07617860  1.0
  Y  Y34  1  0.96226200  0.55660700  0.07617860  1.0
  Y  Y35  1  0.96226200  0.88994033  0.07617860  1.0
  Y  Y36  1  0.11321400  0.14779767  0.12146420  1.0
  Y  Y37  1  0.11321400  0.48113100  0.12146420  1.0
  Y  Y38  1  0.11321400  0.81446433  0.12146420  1.0
  Y  Y39  1  0.44654733  0.14779767  0.12146420  1.0
  Y  Y40  1  0.44654733  0.48113100  0.12146420  1.0
  Y  Y41  1  0.44654733  0.81446433  0.12146420  1.0
  Y  Y42  1  0.77988067  0.14779767  0.12146420  1.0
  Y  Y43  1  0.77988067  0.48113100  0.12146420  1.0
  Y  Y44  1  0.77988067  0.81446433  0.12146420  1.0
  Y  Y45  1  0.11321400  0.31446433  0.02146420  1.0
  Y  Y46  1  0.11321400  0.64779767  0.02146420  1.0
  Y  Y47  1  0.11321400  0.98113100  0.02146420  1.0
  Y  Y48  1  0.44654733  0.31446433  0.02146420  1.0
  Y  Y49  1  0.44654733  0.64779767  0.02146420  1.0
  Y  Y50  1  0.44654733  0.98113100  0.02146420  1.0
  Y  Y51  1  0.77988067  0.31446433  0.02146420  1.0
  Y  Y52  1  0.77988067  0.64779767  0.02146420  1.0
  Y  Y53  1  0.77988067  0.98113100  0.02146420  1.0
  Y  Y54  1  0.12107133  0.15172633  0.02382140  1.0
  Y  Y55  1  0.12107133  0.48505967  0.02382140  1.0
  Y  Y56  1  0.12107133  0.81839300  0.02382140  1.0
  Y  Y57  1  0.45440467  0.15172633  0.02382140  1.0
  Y  Y58  1  0.45440467  0.48505967  0.02382140  1.0
  Y  Y59  1  0.45440467  0.81839300  0.02382140  1.0
  Y  Y60  1  0.78773800  0.15172633  0.02382140  1.0
  Y  Y61  1  0.78773800  0.48505967  0.02382140  1.0
  Y  Y62  1  0.78773800  0.81839300  0.02382140  1.0
  Y  Y63  1  0.12107133  0.31839300  0.12382140  1.0
  Y  Y64  1  0.12107133  0.65172633  0.12382140  1.0
  Y  Y65  1  0.12107133  0.98505967  0.12382140  1.0
  Y  Y66  1  0.45440467  0.31839300  0.12382140  1.0
  Y  Y67  1  0.45440467  0.65172633  0.12382140  1.0
  Y  Y68  1  0.45440467  0.98505967  0.12382140  1.0
  Y  Y69  1  0.78773800  0.31839300  0.12382140  1.0
  Y  Y70  1  0.78773800  0.65172633  0.12382140  1.0
  Y  Y71  1  0.78773800  0.98505967  0.12382140  1.0
  Y  Y72  1  0.12107133  0.06053567  0.16910700  1.0
  Y  Y73  1  0.12107133  0.39386900  0.16910700  1.0
  Y  Y74  1  0.12107133  0.72720233  0.16910700  1.0
  Y  Y75  1  0.45440467  0.06053567  0.16910700  1.0
  Y  Y76  1  0.45440467  0.39386900  0.16910700  1.0
  Y  Y77  1  0.45440467  0.72720233  0.16910700  1.0
  Y  Y78  1  0.78773800  0.06053567  0.16910700  1.0
  Y  Y79  1  0.78773800  0.39386900  0.16910700  1.0
  Y  Y80  1  0.78773800  0.72720233  0.16910700  1.0
  Y  Y81  1  0.12107133  0.22720233  0.06910700  1.0
  Y  Y82  1  0.12107133  0.56053567  0.06910700  1.0
  Y  Y83  1  0.12107133  0.89386900  0.06910700  1.0
  Y  Y84  1  0.45440467  0.22720233  0.06910700  1.0
  Y  Y85  1  0.45440467  0.56053567  0.06910700  1.0
  Y  Y86  1  0.45440467  0.89386900  0.06910700  1.0
  Y  Y87  1  0.78773800  0.22720233  0.06910700  1.0
  Y  Y88  1  0.78773800  0.56053567  0.06910700  1.0
  Y  Y89  1  0.78773800  0.89386900  0.06910700  1.0
  Y  Y90  1  0.29559533  0.14779767  0.12146420  1.0
  Y  Y91  1  0.29559533  0.48113100  0.12146420  1.0
  Y  Y92  1  0.29559533  0.81446433  0.12146420  1.0
  Y  Y93  1  0.62892867  0.14779767  0.12146420  1.0
  Y  Y94  1  0.62892867  0.48113100  0.12146420  1.0
  Y  Y95  1  0.62892867  0.81446433  0.12146420  1.0
  Y  Y96  1  0.96226200  0.14779767  0.12146420  1.0
  Y  Y97  1  0.96226200  0.48113100  0.12146420  1.0
  Y  Y98  1  0.96226200  0.81446433  0.12146420  1.0
  Y  Y99  1  0.29559533  0.31446433  0.02146420  1.0
  Y  Y100  1  0.29559533  0.64779767  0.02146420  1.0
  Y  Y101  1  0.29559533  0.98113100  0.02146420  1.0
  Y  Y102  1  0.62892867  0.31446433  0.02146420  1.0
  Y  Y103  1  0.62892867  0.64779767  0.02146420  1.0
  Y  Y104  1  0.62892867  0.98113100  0.02146420  1.0
  Y  Y105  1  0.96226200  0.31446433  0.02146420  1.0
  Y  Y106  1  0.96226200  0.64779767  0.02146420  1.0
  Y  Y107  1  0.96226200  0.98113100  0.02146420  1.0
  Y  Y108  1  0.30345267  0.06053567  0.07853580  1.0
  Y  Y109  1  0.30345267  0.39386900  0.07853580  1.0
  Y  Y110  1  0.30345267  0.72720233  0.07853580  1.0
  Y  Y111  1  0.63678600  0.06053567  0.07853580  1.0
  Y  Y112  1  0.63678600  0.39386900  0.07853580  1.0
  Y  Y113  1  0.63678600  0.72720233  0.07853580  1.0
  Y  Y114  1  0.97011933  0.06053567  0.07853580  1.0
  Y  Y115  1  0.97011933  0.39386900  0.07853580  1.0
  Y  Y116  1  0.97011933  0.72720233  0.07853580  1.0
  Y  Y117  1  0.30345267  0.22720233  0.17853580  1.0
  Y  Y118  1  0.30345267  0.56053567  0.17853580  1.0
  Y  Y119  1  0.30345267  0.89386900  0.17853580  1.0
  Y  Y120  1  0.63678600  0.22720233  0.17853580  1.0
  Y  Y121  1  0.63678600  0.56053567  0.17853580  1.0
  Y  Y122  1  0.63678600  0.89386900  0.17853580  1.0
  Y  Y123  1  0.97011933  0.22720233  0.17853580  1.0
  Y  Y124  1  0.97011933  0.56053567  0.17853580  1.0
  Y  Y125  1  0.97011933  0.89386900  0.17853580  1.0
  Y  Y126  1  0.12107133  0.06053567  0.07853580  1.0
  Y  Y127  1  0.12107133  0.39386900  0.07853580  1.0
  Y  Y128  1  0.12107133  0.72720233  0.07853580  1.0
  Y  Y129  1  0.45440467  0.06053567  0.07853580  1.0
  Y  Y130  1  0.45440467  0.39386900  0.07853580  1.0
  Y  Y131  1  0.45440467  0.72720233  0.07853580  1.0
  Y  Y132  1  0.78773800  0.06053567  0.07853580  1.0
  Y  Y133  1  0.78773800  0.39386900  0.07853580  1.0
  Y  Y134  1  0.78773800  0.72720233  0.07853580  1.0
  Y  Y135  1  0.12107133  0.22720233  0.17853580  1.0
  Y  Y136  1  0.12107133  0.56053567  0.17853580  1.0
  Y  Y137  1  0.12107133  0.89386900  0.17853580  1.0
  Y  Y138  1  0.45440467  0.22720233  0.17853580  1.0
  Y  Y139  1  0.45440467  0.56053567  0.17853580  1.0
  Y  Y140  1  0.45440467  0.89386900  0.17853580  1.0
  Y  Y141  1  0.78773800  0.22720233  0.17853580  1.0
  Y  Y142  1  0.78773800  0.56053567  0.17853580  1.0
  Y  Y143  1  0.78773800  0.89386900  0.17853580  1.0
  Ni  Ni144  1  0.16666667  0.08333333  0.03750000  1.0
  Ni  Ni145  1  0.16666667  0.41666667  0.03750000  1.0
  Ni  Ni146  1  0.16666667  0.75000000  0.03750000  1.0
  Ni  Ni147  1  0.50000000  0.08333333  0.03750000  1.0
  Ni  Ni148  1  0.50000000  0.41666667  0.03750000  1.0
  Ni  Ni149  1  0.50000000  0.75000000  0.03750000  1.0
  Ni  Ni150  1  0.83333333  0.08333333  0.03750000  1.0
  Ni  Ni151  1  0.83333333  0.41666667  0.03750000  1.0
  Ni  Ni152  1  0.83333333  0.75000000  0.03750000  1.0
  Ni  Ni153  1  0.16666667  0.25000000  0.13750000  1.0
  Ni  Ni154  1  0.16666667  0.58333333  0.13750000  1.0
  Ni  Ni155  1  0.16666667  0.91666667  0.13750000  1.0
  Ni  Ni156  1  0.50000000  0.25000000  0.13750000  1.0
  Ni  Ni157  1  0.50000000  0.58333333  0.13750000  1.0
  Ni  Ni158  1  0.50000000  0.91666667  0.13750000  1.0
  Ni  Ni159  1  0.83333333  0.25000000  0.13750000  1.0
  Ni  Ni160  1  0.83333333  0.58333333  0.13750000  1.0
  Ni  Ni161  1  0.83333333  0.91666667  0.13750000  1.0
  Ni  Ni162  1  0.25000000  0.12500000  0.16250000  1.0
  Ni  Ni163  1  0.25000000  0.45833333  0.16250000  1.0
  Ni  Ni164  1  0.25000000  0.79166667  0.16250000  1.0
  Ni  Ni165  1  0.58333333  0.12500000  0.16250000  1.0
  Ni  Ni166  1  0.58333333  0.45833333  0.16250000  1.0
  Ni  Ni167  1  0.58333333  0.79166667  0.16250000  1.0
  Ni  Ni168  1  0.91666667  0.12500000  0.16250000  1.0
  Ni  Ni169  1  0.91666667  0.45833333  0.16250000  1.0
  Ni  Ni170  1  0.91666667  0.79166667  0.16250000  1.0
  Ni  Ni171  1  0.25000000  0.29166667  0.06250000  1.0
  Ni  Ni172  1  0.25000000  0.62500000  0.06250000  1.0
  Ni  Ni173  1  0.25000000  0.95833333  0.06250000  1.0
  Ni  Ni174  1  0.58333333  0.29166667  0.06250000  1.0
  Ni  Ni175  1  0.58333333  0.62500000  0.06250000  1.0
  Ni  Ni176  1  0.58333333  0.95833333  0.06250000  1.0
  Ni  Ni177  1  0.91666667  0.29166667  0.06250000  1.0
  Ni  Ni178  1  0.91666667  0.62500000  0.06250000  1.0
  Ni  Ni179  1  0.91666667  0.95833333  0.06250000  1.0
  Y  Y180  1  0.29559533  0.14779767  0.23089300  1.0
  Y  Y181  1  0.29559533  0.48113100  0.23089300  1.0
  Y  Y182  1  0.29559533  0.81446433  0.23089300  1.0
  Y  Y183  1  0.62892867  0.14779767  0.23089300  1.0
  Y  Y184  1  0.62892867  0.48113100  0.23089300  1.0
  Y  Y185  1  0.62892867  0.81446433  0.23089300  1.0
  Y  Y186  1  0.96226200  0.14779767  0.23089300  1.0
  Y  Y187  1  0.96226200  0.48113100  0.23089300  1.0
  Y  Y188  1  0.96226200  0.81446433  0.23089300  1.0
  Y  Y189  1  0.29559533  0.31446433  0.33089300  1.0
  Y  Y190  1  0.29559533  0.64779767  0.33089300  1.0
  Y  Y191  1  0.29559533  0.98113100  0.33089300  1.0
  Y  Y192  1  0.62892867  0.31446433  0.33089300  1.0
  Y  Y193  1  0.62892867  0.64779767  0.33089300  1.0
  Y  Y194  1  0.62892867  0.98113100  0.33089300  1.0
  Y  Y195  1  0.96226200  0.31446433  0.33089300  1.0
  Y  Y196  1  0.96226200  0.64779767  0.33089300  1.0
  Y  Y197  1  0.96226200  0.98113100  0.33089300  1.0
  Y  Y198  1  0.29559533  0.05660700  0.37617860  1.0
  Y  Y199  1  0.29559533  0.38994033  0.37617860  1.0
  Y  Y200  1  0.29559533  0.72327367  0.37617860  1.0
  Y  Y201  1  0.62892867  0.05660700  0.37617860  1.0
  Y  Y202  1  0.62892867  0.38994033  0.37617860  1.0
  Y  Y203  1  0.62892867  0.72327367  0.37617860  1.0
  Y  Y204  1  0.96226200  0.05660700  0.37617860  1.0
  Y  Y205  1  0.96226200  0.38994033  0.37617860  1.0
  Y  Y206  1  0.96226200  0.72327367  0.37617860  1.0
  Y  Y207  1  0.29559533  0.22327367  0.27617860  1.0
  Y  Y208  1  0.29559533  0.55660700  0.27617860  1.0
  Y  Y209  1  0.29559533  0.88994033  0.27617860  1.0
  Y  Y210  1  0.62892867  0.22327367  0.27617860  1.0
  Y  Y211  1  0.62892867  0.55660700  0.27617860  1.0
  Y  Y212  1  0.62892867  0.88994033  0.27617860  1.0
  Y  Y213  1  0.96226200  0.22327367  0.27617860  1.0
  Y  Y214  1  0.96226200  0.55660700  0.27617860  1.0
  Y  Y215  1  0.96226200  0.88994033  0.27617860  1.0
  Y  Y216  1  0.11321400  0.14779767  0.32146420  1.0
  Y  Y217  1  0.11321400  0.48113100  0.32146420  1.0
  Y  Y218  1  0.11321400  0.81446433  0.32146420  1.0
  Y  Y219  1  0.44654733  0.14779767  0.32146420  1.0
  Y  Y220  1  0.44654733  0.48113100  0.32146420  1.0
  Y  Y221  1  0.44654733  0.81446433  0.32146420  1.0
  Y  Y222  1  0.77988067  0.14779767  0.32146420  1.0
  Y  Y223  1  0.77988067  0.48113100  0.32146420  1.0
  Y  Y224  1  0.77988067  0.81446433  0.32146420  1.0
  Y  Y225  1  0.11321400  0.31446433  0.22146420  1.0
  Y  Y226  1  0.11321400  0.64779767  0.22146420  1.0
  Y  Y227  1  0.11321400  0.98113100  0.22146420  1.0
  Y  Y228  1  0.44654733  0.31446433  0.22146420  1.0
  Y  Y229  1  0.44654733  0.64779767  0.22146420  1.0
  Y  Y230  1  0.44654733  0.98113100  0.22146420  1.0
  Y  Y231  1  0.77988067  0.31446433  0.22146420  1.0
  Y  Y232  1  0.77988067  0.64779767  0.22146420  1.0
  Y  Y233  1  0.77988067  0.98113100  0.22146420  1.0
  Y  Y234  1  0.12107133  0.15172633  0.22382140  1.0
  Y  Y235  1  0.12107133  0.48505967  0.22382140  1.0
  Y  Y236  1  0.12107133  0.81839300  0.22382140  1.0
  Y  Y237  1  0.45440467  0.15172633  0.22382140  1.0
  Y  Y238  1  0.45440467  0.48505967  0.22382140  1.0
  Y  Y239  1  0.45440467  0.81839300  0.22382140  1.0
  Y  Y240  1  0.78773800  0.15172633  0.22382140  1.0
  Y  Y241  1  0.78773800  0.48505967  0.22382140  1.0
  Y  Y242  1  0.78773800  0.81839300  0.22382140  1.0
  Y  Y243  1  0.12107133  0.31839300  0.32382140  1.0
  Y  Y244  1  0.12107133  0.65172633  0.32382140  1.0
  Y  Y245  1  0.12107133  0.98505967  0.32382140  1.0
  Y  Y246  1  0.45440467  0.31839300  0.32382140  1.0
  Y  Y247  1  0.45440467  0.65172633  0.32382140  1.0
  Y  Y248  1  0.45440467  0.98505967  0.32382140  1.0
  Y  Y249  1  0.78773800  0.31839300  0.32382140  1.0
  Y  Y250  1  0.78773800  0.65172633  0.32382140  1.0
  Y  Y251  1  0.78773800  0.98505967  0.32382140  1.0
  Y  Y252  1  0.12107133  0.06053567  0.36910700  1.0
  Y  Y253  1  0.12107133  0.39386900  0.36910700  1.0
  Y  Y254  1  0.12107133  0.72720233  0.36910700  1.0
  Y  Y255  1  0.45440467  0.06053567  0.36910700  1.0
  Y  Y256  1  0.45440467  0.39386900  0.36910700  1.0
  Y  Y257  1  0.45440467  0.72720233  0.36910700  1.0
  Y  Y258  1  0.78773800  0.06053567  0.36910700  1.0
  Y  Y259  1  0.78773800  0.39386900  0.36910700  1.0
  Y  Y260  1  0.78773800  0.72720233  0.36910700  1.0
  Y  Y261  1  0.12107133  0.22720233  0.26910700  1.0
  Y  Y262  1  0.12107133  0.56053567  0.26910700  1.0
  Y  Y263  1  0.12107133  0.89386900  0.26910700  1.0
  Y  Y264  1  0.45440467  0.22720233  0.26910700  1.0
  Y  Y265  1  0.45440467  0.56053567  0.26910700  1.0
  Y  Y266  1  0.45440467  0.89386900  0.26910700  1.0
  Y  Y267  1  0.78773800  0.22720233  0.26910700  1.0
  Y  Y268  1  0.78773800  0.56053567  0.26910700  1.0
  Y  Y269  1  0.78773800  0.89386900  0.26910700  1.0
  Y  Y270  1  0.29559533  0.14779767  0.32146420  1.0
  Y  Y271  1  0.29559533  0.48113100  0.32146420  1.0
  Y  Y272  1  0.29559533  0.81446433  0.32146420  1.0
  Y  Y273  1  0.62892867  0.14779767  0.32146420  1.0
  Y  Y274  1  0.62892867  0.48113100  0.32146420  1.0
  Y  Y275  1  0.62892867  0.81446433  0.32146420  1.0
  Y  Y276  1  0.96226200  0.14779767  0.32146420  1.0
  Y  Y277  1  0.96226200  0.48113100  0.32146420  1.0
  Y  Y278  1  0.96226200  0.81446433  0.32146420  1.0
  Y  Y279  1  0.29559533  0.31446433  0.22146420  1.0
  Y  Y280  1  0.29559533  0.64779767  0.22146420  1.0
  Y  Y281  1  0.29559533  0.98113100  0.22146420  1.0
  Y  Y282  1  0.62892867  0.31446433  0.22146420  1.0
  Y  Y283  1  0.62892867  0.64779767  0.22146420  1.0
  Y  Y284  1  0.62892867  0.98113100  0.22146420  1.0
  Y  Y285  1  0.96226200  0.31446433  0.22146420  1.0
  Y  Y286  1  0.96226200  0.64779767  0.22146420  1.0
  Y  Y287  1  0.96226200  0.98113100  0.22146420  1.0
  Y  Y288  1  0.30345267  0.06053567  0.27853580  1.0
  Y  Y289  1  0.30345267  0.39386900  0.27853580  1.0
  Y  Y290  1  0.30345267  0.72720233  0.27853580  1.0
  Y  Y291  1  0.63678600  0.06053567  0.27853580  1.0
  Y  Y292  1  0.63678600  0.39386900  0.27853580  1.0
  Y  Y293  1  0.63678600  0.72720233  0.27853580  1.0
  Y  Y294  1  0.97011933  0.06053567  0.27853580  1.0
  Y  Y295  1  0.97011933  0.39386900  0.27853580  1.0
  Y  Y296  1  0.97011933  0.72720233  0.27853580  1.0
  Y  Y297  1  0.30345267  0.22720233  0.37853580  1.0
  Y  Y298  1  0.30345267  0.56053567  0.37853580  1.0
  Y  Y299  1  0.30345267  0.89386900  0.37853580  1.0
  Y  Y300  1  0.63678600  0.22720233  0.37853580  1.0
  Y  Y301  1  0.63678600  0.56053567  0.37853580  1.0
  Y  Y302  1  0.63678600  0.89386900  0.37853580  1.0
  Y  Y303  1  0.97011933  0.22720233  0.37853580  1.0
  Y  Y304  1  0.97011933  0.56053567  0.37853580  1.0
  Y  Y305  1  0.97011933  0.89386900  0.37853580  1.0
  Y  Y306  1  0.12107133  0.06053567  0.27853580  1.0
  Y  Y307  1  0.12107133  0.39386900  0.27853580  1.0
  Y  Y308  1  0.12107133  0.72720233  0.27853580  1.0
  Y  Y309  1  0.45440467  0.06053567  0.27853580  1.0
  Y  Y310  1  0.45440467  0.39386900  0.27853580  1.0
  Y  Y311  1  0.45440467  0.72720233  0.27853580  1.0
  Y  Y312  1  0.78773800  0.06053567  0.27853580  1.0
  Y  Y313  1  0.78773800  0.39386900  0.27853580  1.0
  Y  Y314  1  0.78773800  0.72720233  0.27853580  1.0
  Y  Y315  1  0.12107133  0.22720233  0.37853580  1.0
  Y  Y316  1  0.12107133  0.56053567  0.37853580  1.0
  Y  Y317  1  0.12107133  0.89386900  0.37853580  1.0
  Y  Y318  1  0.45440467  0.22720233  0.37853580  1.0
  Y  Y319  1  0.45440467  0.56053567  0.37853580  1.0
  Y  Y320  1  0.45440467  0.89386900  0.37853580  1.0
  Y  Y321  1  0.78773800  0.22720233  0.37853580  1.0
  Y  Y322  1  0.78773800  0.56053567  0.37853580  1.0
  Y  Y323  1  0.78773800  0.89386900  0.37853580  1.0
  Ni  Ni324  1  0.16666667  0.08333333  0.23750000  1.0
  Ni  Ni325  1  0.16666667  0.41666667  0.23750000  1.0
  Ni  Ni326  1  0.16666667  0.75000000  0.23750000  1.0
  Ni  Ni327  1  0.50000000  0.08333333  0.23750000  1.0
  Ni  Ni328  1  0.50000000  0.41666667  0.23750000  1.0
  Ni  Ni329  1  0.50000000  0.75000000  0.23750000  1.0
  Ni  Ni330  1  0.83333333  0.08333333  0.23750000  1.0
  Ni  Ni331  1  0.83333333  0.41666667  0.23750000  1.0
  Ni  Ni332  1  0.83333333  0.75000000  0.23750000  1.0
  Ni  Ni333  1  0.16666667  0.25000000  0.33750000  1.0
  Ni  Ni334  1  0.16666667  0.58333333  0.33750000  1.0
  Ni  Ni335  1  0.16666667  0.91666667  0.33750000  1.0
  Ni  Ni336  1  0.50000000  0.25000000  0.33750000  1.0
  Ni  Ni337  1  0.50000000  0.58333333  0.33750000  1.0
  Ni  Ni338  1  0.50000000  0.91666667  0.33750000  1.0
  Ni  Ni339  1  0.83333333  0.25000000  0.33750000  1.0
  Ni  Ni340  1  0.83333333  0.58333333  0.33750000  1.0
  Ni  Ni341  1  0.83333333  0.91666667  0.33750000  1.0
  Ni  Ni342  1  0.25000000  0.12500000  0.36250000  1.0
  Ni  Ni343  1  0.25000000  0.45833333  0.36250000  1.0
  Ni  Ni344  1  0.25000000  0.79166667  0.36250000  1.0
  Ni  Ni345  1  0.58333333  0.12500000  0.36250000  1.0
  Ni  Ni346  1  0.58333333  0.45833333  0.36250000  1.0
  Ni  Ni347  1  0.58333333  0.79166667  0.36250000  1.0
  Ni  Ni348  1  0.91666667  0.12500000  0.36250000  1.0
  Ni  Ni349  1  0.91666667  0.45833333  0.36250000  1.0
  Ni  Ni350  1  0.91666667  0.79166667  0.36250000  1.0
  Ni  Ni351  1  0.25000000  0.29166667  0.26250000  1.0
  Ni  Ni352  1  0.25000000  0.62500000  0.26250000  1.0
  Ni  Ni353  1  0.25000000  0.95833333  0.26250000  1.0
  Ni  Ni354  1  0.58333333  0.29166667  0.26250000  1.0
  Ni  Ni355  1  0.58333333  0.62500000  0.26250000  1.0
  Ni  Ni356  1  0.58333333  0.95833333  0.26250000  1.0
  Ni  Ni357  1  0.91666667  0.29166667  0.26250000  1.0
  Ni  Ni358  1  0.91666667  0.62500000  0.26250000  1.0
  Ni  Ni359  1  0.91666667  0.95833333  0.26250000  1.0
