# generated using pymatgen
data_Y4Ni
_symmetry_space_group_name_H-M   'P 1'
_cell_length_a   22.71990090
_cell_length_b   55.65216421
_cell_length_c   31.22551707
_cell_angle_alpha   101.42175366
_cell_angle_beta   90.00000000
_cell_angle_gamma   90.00000000
_symmetry_Int_Tables_number   1
_chemical_formula_structural   Y4Ni
_chemical_formula_sum   'Y432 Ni108'
_cell_volume   38700.01036356
_cell_formula_units_Z   108
loop_
 _symmetry_equiv_pos_site_id
 _symmetry_equiv_pos_as_xyz
  1  'x, y, z'
loop_
 _atom_site_type_symbol
 _atom_site_label
 _atom_site_symmetry_multiplicity
 _atom_site_fract_x
 _atom_site_fract_y
 _atom_site_fract_z
 _atom_site_occupancy
  Ni  Ni0  1  0.00000000  0.07367352  0.13948971  1.0
  Ni  Ni1  1  0.00000000  0.40700686  0.13948971  1.0
  Ni  Ni2  1  0.00000000  0.74034019  0.13948971  1.0
  Ni  Ni3  1  0.33333333  0.07367352  0.13948971  1.0
  Ni  Ni4  1  0.33333333  0.40700686  0.13948971  1.0
  Ni  Ni5  1  0.33333333  0.74034019  0.13948971  1.0
  Ni  Ni6  1  0.66666667  0.07367352  0.13948971  1.0
  Ni  Ni7  1  0.66666667  0.40700686  0.13948971  1.0
  Ni  Ni8  1  0.66666667  0.74034019  0.13948971  1.0
  Ni  Ni9  1  0.16666667  0.28795924  0.06806114  1.0
  Ni  Ni10  1  0.16666667  0.62129257  0.06806114  1.0
  Ni  Ni11  1  0.16666667  0.95462590  0.06806114  1.0
  Ni  Ni12  1  0.50000000  0.28795924  0.06806114  1.0
  Ni  Ni13  1  0.50000000  0.62129257  0.06806114  1.0
  Ni  Ni14  1  0.50000000  0.95462590  0.06806114  1.0
  Ni  Ni15  1  0.83333333  0.28795924  0.06806114  1.0
  Ni  Ni16  1  0.83333333  0.62129257  0.06806114  1.0
  Ni  Ni17  1  0.83333333  0.95462590  0.06806114  1.0
  Ni  Ni18  1  0.00000000  0.32367352  0.13948971  1.0
  Ni  Ni19  1  0.00000000  0.65700686  0.13948971  1.0
  Ni  Ni20  1  0.00000000  0.99034019  0.13948971  1.0
  Ni  Ni21  1  0.33333333  0.32367352  0.13948971  1.0
  Ni  Ni22  1  0.33333333  0.65700686  0.13948971  1.0
  Ni  Ni23  1  0.33333333  0.99034019  0.13948971  1.0
  Ni  Ni24  1  0.66666667  0.32367352  0.13948971  1.0
  Ni  Ni25  1  0.66666667  0.65700686  0.13948971  1.0
  Ni  Ni26  1  0.66666667  0.99034019  0.13948971  1.0
  Ni  Ni27  1  0.16666667  0.20462590  0.06806114  1.0
  Ni  Ni28  1  0.16666667  0.53795924  0.06806114  1.0
  Ni  Ni29  1  0.16666667  0.87129257  0.06806114  1.0
  Ni  Ni30  1  0.50000000  0.20462590  0.06806114  1.0
  Ni  Ni31  1  0.50000000  0.53795924  0.06806114  1.0
  Ni  Ni32  1  0.50000000  0.87129257  0.06806114  1.0
  Ni  Ni33  1  0.83333333  0.20462590  0.06806114  1.0
  Ni  Ni34  1  0.83333333  0.53795924  0.06806114  1.0
  Ni  Ni35  1  0.83333333  0.87129257  0.06806114  1.0
  Ni  Ni36  1  0.00000000  0.31176876  0.28234686  1.0
  Ni  Ni37  1  0.00000000  0.64510210  0.28234686  1.0
  Ni  Ni38  1  0.00000000  0.97843543  0.28234686  1.0
  Ni  Ni39  1  0.33333333  0.31176876  0.28234686  1.0
  Ni  Ni40  1  0.33333333  0.64510210  0.28234686  1.0
  Ni  Ni41  1  0.33333333  0.97843543  0.28234686  1.0
  Ni  Ni42  1  0.66666667  0.31176876  0.28234686  1.0
  Ni  Ni43  1  0.66666667  0.64510210  0.28234686  1.0
  Ni  Ni44  1  0.66666667  0.97843543  0.28234686  1.0
  Ni  Ni45  1  0.16666667  0.19272114  0.21091829  1.0
  Ni  Ni46  1  0.16666667  0.52605448  0.21091829  1.0
  Ni  Ni47  1  0.16666667  0.85938781  0.21091829  1.0
  Ni  Ni48  1  0.50000000  0.19272114  0.21091829  1.0
  Ni  Ni49  1  0.50000000  0.52605448  0.21091829  1.0
  Ni  Ni50  1  0.50000000  0.85938781  0.21091829  1.0
  Ni  Ni51  1  0.83333333  0.19272114  0.21091829  1.0
  Ni  Ni52  1  0.83333333  0.52605448  0.21091829  1.0
  Ni  Ni53  1  0.83333333  0.85938781  0.21091829  1.0
  Ni  Ni54  1  0.00000000  0.22843543  0.28234686  1.0
  Ni  Ni55  1  0.00000000  0.56176876  0.28234686  1.0
  Ni  Ni56  1  0.00000000  0.89510210  0.28234686  1.0
  Ni  Ni57  1  0.33333333  0.22843543  0.28234686  1.0
  Ni  Ni58  1  0.33333333  0.56176876  0.28234686  1.0
  Ni  Ni59  1  0.33333333  0.89510210  0.28234686  1.0
  Ni  Ni60  1  0.66666667  0.22843543  0.28234686  1.0
  Ni  Ni61  1  0.66666667  0.56176876  0.28234686  1.0
  Ni  Ni62  1  0.66666667  0.89510210  0.28234686  1.0
  Ni  Ni63  1  0.16666667  0.10938781  0.21091829  1.0
  Ni  Ni64  1  0.16666667  0.44272114  0.21091829  1.0
  Ni  Ni65  1  0.16666667  0.77605448  0.21091829  1.0
  Ni  Ni66  1  0.50000000  0.10938781  0.21091829  1.0
  Ni  Ni67  1  0.50000000  0.44272114  0.21091829  1.0
  Ni  Ni68  1  0.50000000  0.77605448  0.21091829  1.0
  Ni  Ni69  1  0.83333333  0.10938781  0.21091829  1.0
  Ni  Ni70  1  0.83333333  0.44272114  0.21091829  1.0
  Ni  Ni71  1  0.83333333  0.77605448  0.21091829  1.0
  Ni  Ni72  1  0.00000000  0.21653067  0.42520400  1.0
  Ni  Ni73  1  0.00000000  0.54986400  0.42520400  1.0
  Ni  Ni74  1  0.00000000  0.88319733  0.42520400  1.0
  Ni  Ni75  1  0.33333333  0.21653067  0.42520400  1.0
  Ni  Ni76  1  0.33333333  0.54986400  0.42520400  1.0
  Ni  Ni77  1  0.33333333  0.88319733  0.42520400  1.0
  Ni  Ni78  1  0.66666667  0.21653067  0.42520400  1.0
  Ni  Ni79  1  0.66666667  0.54986400  0.42520400  1.0
  Ni  Ni80  1  0.66666667  0.88319733  0.42520400  1.0
  Ni  Ni81  1  0.16666667  0.09748305  0.35377543  1.0
  Ni  Ni82  1  0.16666667  0.43081638  0.35377543  1.0
  Ni  Ni83  1  0.16666667  0.76414971  0.35377543  1.0
  Ni  Ni84  1  0.50000000  0.09748305  0.35377543  1.0
  Ni  Ni85  1  0.50000000  0.43081638  0.35377543  1.0
  Ni  Ni86  1  0.50000000  0.76414971  0.35377543  1.0
  Ni  Ni87  1  0.83333333  0.09748305  0.35377543  1.0
  Ni  Ni88  1  0.83333333  0.43081638  0.35377543  1.0
  Ni  Ni89  1  0.83333333  0.76414971  0.35377543  1.0
  Ni  Ni90  1  0.00000000  0.13319733  0.42520400  1.0
  Ni  Ni91  1  0.00000000  0.46653067  0.42520400  1.0
  Ni  Ni92  1  0.00000000  0.79986400  0.42520400  1.0
  Ni  Ni93  1  0.33333333  0.13319733  0.42520400  1.0
  Ni  Ni94  1  0.33333333  0.46653067  0.42520400  1.0
  Ni  Ni95  1  0.33333333  0.79986400  0.42520400  1.0
  Ni  Ni96  1  0.66666667  0.13319733  0.42520400  1.0
  Ni  Ni97  1  0.66666667  0.46653067  0.42520400  1.0
  Ni  Ni98  1  0.66666667  0.79986400  0.42520400  1.0
  Ni  Ni99  1  0.16666667  0.01414971  0.35377543  1.0
  Ni  Ni100  1  0.16666667  0.34748305  0.35377543  1.0
  Ni  Ni101  1  0.16666667  0.68081638  0.35377543  1.0
  Ni  Ni102  1  0.50000000  0.01414971  0.35377543  1.0
  Ni  Ni103  1  0.50000000  0.34748305  0.35377543  1.0
  Ni  Ni104  1  0.50000000  0.68081638  0.35377543  1.0
  Ni  Ni105  1  0.83333333  0.01414971  0.35377543  1.0
  Ni  Ni106  1  0.83333333  0.34748305  0.35377543  1.0
  Ni  Ni107  1  0.83333333  0.68081638  0.35377543  1.0
  Y  Y108  1  0.00000000  0.27807819  0.13948971  1.0
  Y  Y109  1  0.00000000  0.61141152  0.13948971  1.0
  Y  Y110  1  0.00000000  0.94474486  0.13948971  1.0
  Y  Y111  1  0.33333333  0.27807819  0.13948971  1.0
  Y  Y112  1  0.33333333  0.61141152  0.13948971  1.0
  Y  Y113  1  0.33333333  0.94474486  0.13948971  1.0
  Y  Y114  1  0.66666667  0.27807819  0.13948971  1.0
  Y  Y115  1  0.66666667  0.61141152  0.13948971  1.0
  Y  Y116  1  0.66666667  0.94474486  0.13948971  1.0
  Y  Y117  1  0.16666667  0.15903057  0.06806114  1.0
  Y  Y118  1  0.16666667  0.49236390  0.06806114  1.0
  Y  Y119  1  0.16666667  0.82569724  0.06806114  1.0
  Y  Y120  1  0.50000000  0.15903057  0.06806114  1.0
  Y  Y121  1  0.50000000  0.49236390  0.06806114  1.0
  Y  Y122  1  0.50000000  0.82569724  0.06806114  1.0
  Y  Y123  1  0.83333333  0.15903057  0.06806114  1.0
  Y  Y124  1  0.83333333  0.49236390  0.06806114  1.0
  Y  Y125  1  0.83333333  0.82569724  0.06806114  1.0
  Y  Y126  1  0.24214267  0.10511914  0.03571429  1.0
  Y  Y127  1  0.24214267  0.43845248  0.03571429  1.0
  Y  Y128  1  0.24214267  0.77178581  0.03571429  1.0
  Y  Y129  1  0.57547600  0.10511914  0.03571429  1.0
  Y  Y130  1  0.57547600  0.43845248  0.03571429  1.0
  Y  Y131  1  0.57547600  0.77178581  0.03571429  1.0
  Y  Y132  1  0.90880933  0.10511914  0.03571429  1.0
  Y  Y133  1  0.90880933  0.43845248  0.03571429  1.0
  Y  Y134  1  0.90880933  0.77178581  0.03571429  1.0
  Y  Y135  1  0.07547600  0.22416676  0.10714286  1.0
  Y  Y136  1  0.07547600  0.55750010  0.10714286  1.0
  Y  Y137  1  0.07547600  0.89083343  0.10714286  1.0
  Y  Y138  1  0.40880933  0.22416676  0.10714286  1.0
  Y  Y139  1  0.40880933  0.55750010  0.10714286  1.0
  Y  Y140  1  0.40880933  0.89083343  0.10714286  1.0
  Y  Y141  1  0.74214267  0.22416676  0.10714286  1.0
  Y  Y142  1  0.74214267  0.55750010  0.10714286  1.0
  Y  Y143  1  0.74214267  0.89083343  0.10714286  1.0
  Y  Y144  1  0.09119067  0.10511914  0.03571429  1.0
  Y  Y145  1  0.09119067  0.43845248  0.03571429  1.0
  Y  Y146  1  0.09119067  0.77178581  0.03571429  1.0
  Y  Y147  1  0.42452400  0.10511914  0.03571429  1.0
  Y  Y148  1  0.42452400  0.43845248  0.03571429  1.0
  Y  Y149  1  0.42452400  0.77178581  0.03571429  1.0
  Y  Y150  1  0.75785733  0.10511914  0.03571429  1.0
  Y  Y151  1  0.75785733  0.43845248  0.03571429  1.0
  Y  Y152  1  0.75785733  0.77178581  0.03571429  1.0
  Y  Y153  1  0.25785733  0.22416676  0.10714286  1.0
  Y  Y154  1  0.25785733  0.55750010  0.10714286  1.0
  Y  Y155  1  0.25785733  0.89083343  0.10714286  1.0
  Y  Y156  1  0.59119067  0.22416676  0.10714286  1.0
  Y  Y157  1  0.59119067  0.55750010  0.10714286  1.0
  Y  Y158  1  0.59119067  0.89083343  0.10714286  1.0
  Y  Y159  1  0.92452400  0.22416676  0.10714286  1.0
  Y  Y160  1  0.92452400  0.55750010  0.10714286  1.0
  Y  Y161  1  0.92452400  0.89083343  0.10714286  1.0
  Y  Y162  1  0.09119067  0.05413267  0.10040800  1.0
  Y  Y163  1  0.09119067  0.38746600  0.10040800  1.0
  Y  Y164  1  0.09119067  0.72079933  0.10040800  1.0
  Y  Y165  1  0.42452400  0.05413267  0.10040800  1.0
  Y  Y166  1  0.42452400  0.38746600  0.10040800  1.0
  Y  Y167  1  0.42452400  0.72079933  0.10040800  1.0
  Y  Y168  1  0.75785733  0.05413267  0.10040800  1.0
  Y  Y169  1  0.75785733  0.38746600  0.10040800  1.0
  Y  Y170  1  0.75785733  0.72079933  0.10040800  1.0
  Y  Y171  1  0.25785733  0.26841838  0.02897943  1.0
  Y  Y172  1  0.25785733  0.60175171  0.02897943  1.0
  Y  Y173  1  0.25785733  0.93508505  0.02897943  1.0
  Y  Y174  1  0.59119067  0.26841838  0.02897943  1.0
  Y  Y175  1  0.59119067  0.60175171  0.02897943  1.0
  Y  Y176  1  0.59119067  0.93508505  0.02897943  1.0
  Y  Y177  1  0.92452400  0.26841838  0.02897943  1.0
  Y  Y178  1  0.92452400  0.60175171  0.02897943  1.0
  Y  Y179  1  0.92452400  0.93508505  0.02897943  1.0
  Y  Y180  1  0.00000000  0.11926886  0.13948971  1.0
  Y  Y181  1  0.00000000  0.45260219  0.13948971  1.0
  Y  Y182  1  0.00000000  0.78593552  0.13948971  1.0
  Y  Y183  1  0.33333333  0.11926886  0.13948971  1.0
  Y  Y184  1  0.33333333  0.45260219  0.13948971  1.0
  Y  Y185  1  0.33333333  0.78593552  0.13948971  1.0
  Y  Y186  1  0.66666667  0.11926886  0.13948971  1.0
  Y  Y187  1  0.66666667  0.45260219  0.13948971  1.0
  Y  Y188  1  0.66666667  0.78593552  0.13948971  1.0
  Y  Y189  1  0.16666667  0.00022124  0.06806114  1.0
  Y  Y190  1  0.16666667  0.33355457  0.06806114  1.0
  Y  Y191  1  0.16666667  0.66688790  0.06806114  1.0
  Y  Y192  1  0.50000000  0.00022124  0.06806114  1.0
  Y  Y193  1  0.50000000  0.33355457  0.06806114  1.0
  Y  Y194  1  0.50000000  0.66688790  0.06806114  1.0
  Y  Y195  1  0.83333333  0.00022124  0.06806114  1.0
  Y  Y196  1  0.83333333  0.33355457  0.06806114  1.0
  Y  Y197  1  0.83333333  0.66688790  0.06806114  1.0
  Y  Y198  1  0.33333333  0.33018714  0.06132629  1.0
  Y  Y199  1  0.33333333  0.66352048  0.06132629  1.0
  Y  Y200  1  0.33333333  0.99685381  0.06132629  1.0
  Y  Y201  1  0.66666667  0.33018714  0.06132629  1.0
  Y  Y202  1  0.66666667  0.66352048  0.06132629  1.0
  Y  Y203  1  0.66666667  0.99685381  0.06132629  1.0
  Y  Y204  1  1.00000000  0.33018714  0.06132629  1.0
  Y  Y205  1  1.00000000  0.66352048  0.06132629  1.0
  Y  Y206  1  0.00000000  0.99685381  0.06132629  1.0
  Y  Y207  1  0.16666667  0.11590143  0.13275486  1.0
  Y  Y208  1  0.16666667  0.44923476  0.13275486  1.0
  Y  Y209  1  0.16666667  0.78256810  0.13275486  1.0
  Y  Y210  1  0.50000000  0.11590143  0.13275486  1.0
  Y  Y211  1  0.50000000  0.44923476  0.13275486  1.0
  Y  Y212  1  0.50000000  0.78256810  0.13275486  1.0
  Y  Y213  1  0.83333333  0.11590143  0.13275486  1.0
  Y  Y214  1  0.83333333  0.44923476  0.13275486  1.0
  Y  Y215  1  0.83333333  0.78256810  0.13275486  1.0
  Y  Y216  1  0.24214267  0.05413267  0.10040800  1.0
  Y  Y217  1  0.24214267  0.38746600  0.10040800  1.0
  Y  Y218  1  0.24214267  0.72079933  0.10040800  1.0
  Y  Y219  1  0.57547600  0.05413267  0.10040800  1.0
  Y  Y220  1  0.57547600  0.38746600  0.10040800  1.0
  Y  Y221  1  0.57547600  0.72079933  0.10040800  1.0
  Y  Y222  1  0.90880933  0.05413267  0.10040800  1.0
  Y  Y223  1  0.90880933  0.38746600  0.10040800  1.0
  Y  Y224  1  0.90880933  0.72079933  0.10040800  1.0
  Y  Y225  1  0.07547600  0.26841838  0.02897943  1.0
  Y  Y226  1  0.07547600  0.60175171  0.02897943  1.0
  Y  Y227  1  0.07547600  0.93508505  0.02897943  1.0
  Y  Y228  1  0.40880933  0.26841838  0.02897943  1.0
  Y  Y229  1  0.40880933  0.60175171  0.02897943  1.0
  Y  Y230  1  0.40880933  0.93508505  0.02897943  1.0
  Y  Y231  1  0.74214267  0.26841838  0.02897943  1.0
  Y  Y232  1  0.74214267  0.60175171  0.02897943  1.0
  Y  Y233  1  0.74214267  0.93508505  0.02897943  1.0
  Y  Y234  1  0.00000000  0.16239800  0.07479600  1.0
  Y  Y235  1  0.00000000  0.49573133  0.07479600  1.0
  Y  Y236  1  0.00000000  0.82906467  0.07479600  1.0
  Y  Y237  1  0.33333333  0.16239800  0.07479600  1.0
  Y  Y238  1  0.33333333  0.49573133  0.07479600  1.0
  Y  Y239  1  0.33333333  0.82906467  0.07479600  1.0
  Y  Y240  1  0.66666667  0.16239800  0.07479600  1.0
  Y  Y241  1  0.66666667  0.49573133  0.07479600  1.0
  Y  Y242  1  0.66666667  0.82906467  0.07479600  1.0
  Y  Y243  1  0.16666667  0.04335038  0.00336743  1.0
  Y  Y244  1  0.16666667  0.37668371  0.00336743  1.0
  Y  Y245  1  0.16666667  0.71001705  0.00336743  1.0
  Y  Y246  1  0.50000000  0.04335038  0.00336743  1.0
  Y  Y247  1  0.50000000  0.37668371  0.00336743  1.0
  Y  Y248  1  0.50000000  0.71001705  0.00336743  1.0
  Y  Y249  1  0.83333333  0.04335038  0.00336743  1.0
  Y  Y250  1  0.83333333  0.37668371  0.00336743  1.0
  Y  Y251  1  0.83333333  0.71001705  0.00336743  1.0
  Y  Y252  1  0.33333333  0.18284010  0.28234686  1.0
  Y  Y253  1  0.33333333  0.51617343  0.28234686  1.0
  Y  Y254  1  0.33333333  0.84950676  0.28234686  1.0
  Y  Y255  1  0.66666667  0.18284010  0.28234686  1.0
  Y  Y256  1  0.66666667  0.51617343  0.28234686  1.0
  Y  Y257  1  0.66666667  0.84950676  0.28234686  1.0
  Y  Y258  1  0.00000000  0.18284010  0.28234686  1.0
  Y  Y259  1  0.00000000  0.51617343  0.28234686  1.0
  Y  Y260  1  0.00000000  0.84950676  0.28234686  1.0
  Y  Y261  1  0.16666667  0.06379248  0.21091829  1.0
  Y  Y262  1  0.16666667  0.39712581  0.21091829  1.0
  Y  Y263  1  0.16666667  0.73045914  0.21091829  1.0
  Y  Y264  1  0.50000000  0.06379248  0.21091829  1.0
  Y  Y265  1  0.50000000  0.39712581  0.21091829  1.0
  Y  Y266  1  0.50000000  0.73045914  0.21091829  1.0
  Y  Y267  1  0.83333333  0.06379248  0.21091829  1.0
  Y  Y268  1  0.83333333  0.39712581  0.21091829  1.0
  Y  Y269  1  0.83333333  0.73045914  0.21091829  1.0
  Y  Y270  1  0.24214267  0.00988105  0.17857143  1.0
  Y  Y271  1  0.24214267  0.34321438  0.17857143  1.0
  Y  Y272  1  0.24214267  0.67654771  0.17857143  1.0
  Y  Y273  1  0.57547600  0.00988105  0.17857143  1.0
  Y  Y274  1  0.57547600  0.34321438  0.17857143  1.0
  Y  Y275  1  0.57547600  0.67654771  0.17857143  1.0
  Y  Y276  1  0.90880933  0.00988105  0.17857143  1.0
  Y  Y277  1  0.90880933  0.34321438  0.17857143  1.0
  Y  Y278  1  0.90880933  0.67654771  0.17857143  1.0
  Y  Y279  1  0.07547600  0.12892867  0.25000000  1.0
  Y  Y280  1  0.07547600  0.46226200  0.25000000  1.0
  Y  Y281  1  0.07547600  0.79559533  0.25000000  1.0
  Y  Y282  1  0.40880933  0.12892867  0.25000000  1.0
  Y  Y283  1  0.40880933  0.46226200  0.25000000  1.0
  Y  Y284  1  0.40880933  0.79559533  0.25000000  1.0
  Y  Y285  1  0.74214267  0.12892867  0.25000000  1.0
  Y  Y286  1  0.74214267  0.46226200  0.25000000  1.0
  Y  Y287  1  0.74214267  0.79559533  0.25000000  1.0
  Y  Y288  1  0.09119067  0.00988105  0.17857143  1.0
  Y  Y289  1  0.09119067  0.34321438  0.17857143  1.0
  Y  Y290  1  0.09119067  0.67654771  0.17857143  1.0
  Y  Y291  1  0.42452400  0.00988105  0.17857143  1.0
  Y  Y292  1  0.42452400  0.34321438  0.17857143  1.0
  Y  Y293  1  0.42452400  0.67654771  0.17857143  1.0
  Y  Y294  1  0.75785733  0.00988105  0.17857143  1.0
  Y  Y295  1  0.75785733  0.34321438  0.17857143  1.0
  Y  Y296  1  0.75785733  0.67654771  0.17857143  1.0
  Y  Y297  1  0.25785733  0.12892867  0.25000000  1.0
  Y  Y298  1  0.25785733  0.46226200  0.25000000  1.0
  Y  Y299  1  0.25785733  0.79559533  0.25000000  1.0
  Y  Y300  1  0.59119067  0.12892867  0.25000000  1.0
  Y  Y301  1  0.59119067  0.46226200  0.25000000  1.0
  Y  Y302  1  0.59119067  0.79559533  0.25000000  1.0
  Y  Y303  1  0.92452400  0.12892867  0.25000000  1.0
  Y  Y304  1  0.92452400  0.46226200  0.25000000  1.0
  Y  Y305  1  0.92452400  0.79559533  0.25000000  1.0
  Y  Y306  1  0.09119067  0.29222790  0.24326514  1.0
  Y  Y307  1  0.09119067  0.62556124  0.24326514  1.0
  Y  Y308  1  0.09119067  0.95889457  0.24326514  1.0
  Y  Y309  1  0.42452400  0.29222790  0.24326514  1.0
  Y  Y310  1  0.42452400  0.62556124  0.24326514  1.0
  Y  Y311  1  0.42452400  0.95889457  0.24326514  1.0
  Y  Y312  1  0.75785733  0.29222790  0.24326514  1.0
  Y  Y313  1  0.75785733  0.62556124  0.24326514  1.0
  Y  Y314  1  0.75785733  0.95889457  0.24326514  1.0
  Y  Y315  1  0.25785733  0.17318029  0.17183657  1.0
  Y  Y316  1  0.25785733  0.50651362  0.17183657  1.0
  Y  Y317  1  0.25785733  0.83984695  0.17183657  1.0
  Y  Y318  1  0.59119067  0.17318029  0.17183657  1.0
  Y  Y319  1  0.59119067  0.50651362  0.17183657  1.0
  Y  Y320  1  0.59119067  0.83984695  0.17183657  1.0
  Y  Y321  1  0.92452400  0.17318029  0.17183657  1.0
  Y  Y322  1  0.92452400  0.50651362  0.17183657  1.0
  Y  Y323  1  0.92452400  0.83984695  0.17183657  1.0
  Y  Y324  1  0.00000000  0.02403076  0.28234686  1.0
  Y  Y325  1  0.00000000  0.35736410  0.28234686  1.0
  Y  Y326  1  0.00000000  0.69069743  0.28234686  1.0
  Y  Y327  1  0.33333333  0.02403076  0.28234686  1.0
  Y  Y328  1  0.33333333  0.35736410  0.28234686  1.0
  Y  Y329  1  0.33333333  0.69069743  0.28234686  1.0
  Y  Y330  1  0.66666667  0.02403076  0.28234686  1.0
  Y  Y331  1  0.66666667  0.35736410  0.28234686  1.0
  Y  Y332  1  0.66666667  0.69069743  0.28234686  1.0
  Y  Y333  1  0.16666667  0.23831648  0.21091829  1.0
  Y  Y334  1  0.16666667  0.57164981  0.21091829  1.0
  Y  Y335  1  0.16666667  0.90498314  0.21091829  1.0
  Y  Y336  1  0.50000000  0.23831648  0.21091829  1.0
  Y  Y337  1  0.50000000  0.57164981  0.21091829  1.0
  Y  Y338  1  0.50000000  0.90498314  0.21091829  1.0
  Y  Y339  1  0.83333333  0.23831648  0.21091829  1.0
  Y  Y340  1  0.83333333  0.57164981  0.21091829  1.0
  Y  Y341  1  0.83333333  0.90498314  0.21091829  1.0
  Y  Y342  1  0.33333333  0.23494905  0.20418343  1.0
  Y  Y343  1  0.33333333  0.56828238  0.20418343  1.0
  Y  Y344  1  0.33333333  0.90161571  0.20418343  1.0
  Y  Y345  1  0.66666667  0.23494905  0.20418343  1.0
  Y  Y346  1  0.66666667  0.56828238  0.20418343  1.0
  Y  Y347  1  0.66666667  0.90161571  0.20418343  1.0
  Y  Y348  1  0.00000000  0.23494905  0.20418343  1.0
  Y  Y349  1  1.00000000  0.56828238  0.20418343  1.0
  Y  Y350  1  0.00000000  0.90161571  0.20418343  1.0
  Y  Y351  1  0.16666667  0.02066333  0.27561200  1.0
  Y  Y352  1  0.16666667  0.35399667  0.27561200  1.0
  Y  Y353  1  0.16666667  0.68733000  0.27561200  1.0
  Y  Y354  1  0.50000000  0.02066333  0.27561200  1.0
  Y  Y355  1  0.50000000  0.35399667  0.27561200  1.0
  Y  Y356  1  0.50000000  0.68733000  0.27561200  1.0
  Y  Y357  1  0.83333333  0.02066333  0.27561200  1.0
  Y  Y358  1  0.83333333  0.35399667  0.27561200  1.0
  Y  Y359  1  0.83333333  0.68733000  0.27561200  1.0
  Y  Y360  1  0.24214267  0.29222790  0.24326514  1.0
  Y  Y361  1  0.24214267  0.62556124  0.24326514  1.0
  Y  Y362  1  0.24214267  0.95889457  0.24326514  1.0
  Y  Y363  1  0.57547600  0.29222790  0.24326514  1.0
  Y  Y364  1  0.57547600  0.62556124  0.24326514  1.0
  Y  Y365  1  0.57547600  0.95889457  0.24326514  1.0
  Y  Y366  1  0.90880933  0.29222790  0.24326514  1.0
  Y  Y367  1  0.90880933  0.62556124  0.24326514  1.0
  Y  Y368  1  0.90880933  0.95889457  0.24326514  1.0
  Y  Y369  1  0.07547600  0.17318029  0.17183657  1.0
  Y  Y370  1  0.07547600  0.50651362  0.17183657  1.0
  Y  Y371  1  0.07547600  0.83984695  0.17183657  1.0
  Y  Y372  1  0.40880933  0.17318029  0.17183657  1.0
  Y  Y373  1  0.40880933  0.50651362  0.17183657  1.0
  Y  Y374  1  0.40880933  0.83984695  0.17183657  1.0
  Y  Y375  1  0.74214267  0.17318029  0.17183657  1.0
  Y  Y376  1  0.74214267  0.50651362  0.17183657  1.0
  Y  Y377  1  0.74214267  0.83984695  0.17183657  1.0
  Y  Y378  1  0.00000000  0.06715990  0.21765314  1.0
  Y  Y379  1  0.00000000  0.40049324  0.21765314  1.0
  Y  Y380  1  0.00000000  0.73382657  0.21765314  1.0
  Y  Y381  1  0.33333333  0.06715990  0.21765314  1.0
  Y  Y382  1  0.33333333  0.40049324  0.21765314  1.0
  Y  Y383  1  0.33333333  0.73382657  0.21765314  1.0
  Y  Y384  1  0.66666667  0.06715990  0.21765314  1.0
  Y  Y385  1  0.66666667  0.40049324  0.21765314  1.0
  Y  Y386  1  0.66666667  0.73382657  0.21765314  1.0
  Y  Y387  1  0.16666667  0.28144562  0.14622457  1.0
  Y  Y388  1  0.16666667  0.61477895  0.14622457  1.0
  Y  Y389  1  0.16666667  0.94811229  0.14622457  1.0
  Y  Y390  1  0.50000000  0.28144562  0.14622457  1.0
  Y  Y391  1  0.50000000  0.61477895  0.14622457  1.0
  Y  Y392  1  0.50000000  0.94811229  0.14622457  1.0
  Y  Y393  1  0.83333333  0.28144562  0.14622457  1.0
  Y  Y394  1  0.83333333  0.61477895  0.14622457  1.0
  Y  Y395  1  0.83333333  0.94811229  0.14622457  1.0
  Y  Y396  1  0.33333333  0.08760200  0.42520400  1.0
  Y  Y397  1  0.33333333  0.42093533  0.42520400  1.0
  Y  Y398  1  0.33333333  0.75426867  0.42520400  1.0
  Y  Y399  1  0.66666667  0.08760200  0.42520400  1.0
  Y  Y400  1  0.66666667  0.42093533  0.42520400  1.0
  Y  Y401  1  0.66666667  0.75426867  0.42520400  1.0
  Y  Y402  1  1.00000000  0.08760200  0.42520400  1.0
  Y  Y403  1  1.00000000  0.42093533  0.42520400  1.0
  Y  Y404  1  0.00000000  0.75426867  0.42520400  1.0
  Y  Y405  1  0.16666667  0.30188771  0.35377543  1.0
  Y  Y406  1  0.16666667  0.63522105  0.35377543  1.0
  Y  Y407  1  0.16666667  0.96855438  0.35377543  1.0
  Y  Y408  1  0.50000000  0.30188771  0.35377543  1.0
  Y  Y409  1  0.50000000  0.63522105  0.35377543  1.0
  Y  Y410  1  0.50000000  0.96855438  0.35377543  1.0
  Y  Y411  1  0.83333333  0.30188771  0.35377543  1.0
  Y  Y412  1  0.83333333  0.63522105  0.35377543  1.0
  Y  Y413  1  0.83333333  0.96855438  0.35377543  1.0
  Y  Y414  1  0.24214267  0.24797629  0.32142857  1.0
  Y  Y415  1  0.24214267  0.58130962  0.32142857  1.0
  Y  Y416  1  0.24214267  0.91464295  0.32142857  1.0
  Y  Y417  1  0.57547600  0.24797629  0.32142857  1.0
  Y  Y418  1  0.57547600  0.58130962  0.32142857  1.0
  Y  Y419  1  0.57547600  0.91464295  0.32142857  1.0
  Y  Y420  1  0.90880933  0.24797629  0.32142857  1.0
  Y  Y421  1  0.90880933  0.58130962  0.32142857  1.0
  Y  Y422  1  0.90880933  0.91464295  0.32142857  1.0
  Y  Y423  1  0.07547600  0.03369057  0.39285714  1.0
  Y  Y424  1  0.07547600  0.36702390  0.39285714  1.0
  Y  Y425  1  0.07547600  0.70035724  0.39285714  1.0
  Y  Y426  1  0.40880933  0.03369057  0.39285714  1.0
  Y  Y427  1  0.40880933  0.36702390  0.39285714  1.0
  Y  Y428  1  0.40880933  0.70035724  0.39285714  1.0
  Y  Y429  1  0.74214267  0.03369057  0.39285714  1.0
  Y  Y430  1  0.74214267  0.36702390  0.39285714  1.0
  Y  Y431  1  0.74214267  0.70035724  0.39285714  1.0
  Y  Y432  1  0.09119067  0.24797629  0.32142857  1.0
  Y  Y433  1  0.09119067  0.58130962  0.32142857  1.0
  Y  Y434  1  0.09119067  0.91464295  0.32142857  1.0
  Y  Y435  1  0.42452400  0.24797629  0.32142857  1.0
  Y  Y436  1  0.42452400  0.58130962  0.32142857  1.0
  Y  Y437  1  0.42452400  0.91464295  0.32142857  1.0
  Y  Y438  1  0.75785733  0.24797629  0.32142857  1.0
  Y  Y439  1  0.75785733  0.58130962  0.32142857  1.0
  Y  Y440  1  0.75785733  0.91464295  0.32142857  1.0
  Y  Y441  1  0.25785733  0.03369057  0.39285714  1.0
  Y  Y442  1  0.25785733  0.36702390  0.39285714  1.0
  Y  Y443  1  0.25785733  0.70035724  0.39285714  1.0
  Y  Y444  1  0.59119067  0.03369057  0.39285714  1.0
  Y  Y445  1  0.59119067  0.36702390  0.39285714  1.0
  Y  Y446  1  0.59119067  0.70035724  0.39285714  1.0
  Y  Y447  1  0.92452400  0.03369057  0.39285714  1.0
  Y  Y448  1  0.92452400  0.36702390  0.39285714  1.0
  Y  Y449  1  0.92452400  0.70035724  0.39285714  1.0
  Y  Y450  1  0.09119067  0.19698981  0.38612229  1.0
  Y  Y451  1  0.09119067  0.53032314  0.38612229  1.0
  Y  Y452  1  0.09119067  0.86365648  0.38612229  1.0
  Y  Y453  1  0.42452400  0.19698981  0.38612229  1.0
  Y  Y454  1  0.42452400  0.53032314  0.38612229  1.0
  Y  Y455  1  0.42452400  0.86365648  0.38612229  1.0
  Y  Y456  1  0.75785733  0.19698981  0.38612229  1.0
  Y  Y457  1  0.75785733  0.53032314  0.38612229  1.0
  Y  Y458  1  0.75785733  0.86365648  0.38612229  1.0
  Y  Y459  1  0.25785733  0.07794219  0.31469371  1.0
  Y  Y460  1  0.25785733  0.41127552  0.31469371  1.0
  Y  Y461  1  0.25785733  0.74460886  0.31469371  1.0
  Y  Y462  1  0.59119067  0.07794219  0.31469371  1.0
  Y  Y463  1  0.59119067  0.41127552  0.31469371  1.0
  Y  Y464  1  0.59119067  0.74460886  0.31469371  1.0
  Y  Y465  1  0.92452400  0.07794219  0.31469371  1.0
  Y  Y466  1  0.92452400  0.41127552  0.31469371  1.0
  Y  Y467  1  0.92452400  0.74460886  0.31469371  1.0
  Y  Y468  1  0.00000000  0.26212600  0.42520400  1.0
  Y  Y469  1  0.00000000  0.59545933  0.42520400  1.0
  Y  Y470  1  0.00000000  0.92879267  0.42520400  1.0
  Y  Y471  1  0.33333333  0.26212600  0.42520400  1.0
  Y  Y472  1  0.33333333  0.59545933  0.42520400  1.0
  Y  Y473  1  0.33333333  0.92879267  0.42520400  1.0
  Y  Y474  1  0.66666667  0.26212600  0.42520400  1.0
  Y  Y475  1  0.66666667  0.59545933  0.42520400  1.0
  Y  Y476  1  0.66666667  0.92879267  0.42520400  1.0
  Y  Y477  1  0.16666667  0.14307838  0.35377543  1.0
  Y  Y478  1  0.16666667  0.47641171  0.35377543  1.0
  Y  Y479  1  0.16666667  0.80974505  0.35377543  1.0
  Y  Y480  1  0.50000000  0.14307838  0.35377543  1.0
  Y  Y481  1  0.50000000  0.47641171  0.35377543  1.0
  Y  Y482  1  0.50000000  0.80974505  0.35377543  1.0
  Y  Y483  1  0.83333333  0.14307838  0.35377543  1.0
  Y  Y484  1  0.83333333  0.47641171  0.35377543  1.0
  Y  Y485  1  0.83333333  0.80974505  0.35377543  1.0
  Y  Y486  1  0.33333333  0.13971095  0.34704057  1.0
  Y  Y487  1  0.33333333  0.47304429  0.34704057  1.0
  Y  Y488  1  0.33333333  0.80637762  0.34704057  1.0
  Y  Y489  1  0.66666667  0.13971095  0.34704057  1.0
  Y  Y490  1  0.66666667  0.47304429  0.34704057  1.0
  Y  Y491  1  0.66666667  0.80637762  0.34704057  1.0
  Y  Y492  1  1.00000000  0.13971095  0.34704057  1.0
  Y  Y493  1  1.00000000  0.47304429  0.34704057  1.0
  Y  Y494  1  1.00000000  0.80637762  0.34704057  1.0
  Y  Y495  1  0.16666667  0.25875857  0.41846914  1.0
  Y  Y496  1  0.16666667  0.59209190  0.41846914  1.0
  Y  Y497  1  0.16666667  0.92542524  0.41846914  1.0
  Y  Y498  1  0.50000000  0.25875857  0.41846914  1.0
  Y  Y499  1  0.50000000  0.59209190  0.41846914  1.0
  Y  Y500  1  0.50000000  0.92542524  0.41846914  1.0
  Y  Y501  1  0.83333333  0.25875857  0.41846914  1.0
  Y  Y502  1  0.83333333  0.59209190  0.41846914  1.0
  Y  Y503  1  0.83333333  0.92542524  0.41846914  1.0
  Y  Y504  1  0.24214267  0.19698981  0.38612229  1.0
  Y  Y505  1  0.24214267  0.53032314  0.38612229  1.0
  Y  Y506  1  0.24214267  0.86365648  0.38612229  1.0
  Y  Y507  1  0.57547600  0.19698981  0.38612229  1.0
  Y  Y508  1  0.57547600  0.53032314  0.38612229  1.0
  Y  Y509  1  0.57547600  0.86365648  0.38612229  1.0
  Y  Y510  1  0.90880933  0.19698981  0.38612229  1.0
  Y  Y511  1  0.90880933  0.53032314  0.38612229  1.0
  Y  Y512  1  0.90880933  0.86365648  0.38612229  1.0
  Y  Y513  1  0.07547600  0.07794219  0.31469371  1.0
  Y  Y514  1  0.07547600  0.41127552  0.31469371  1.0
  Y  Y515  1  0.07547600  0.74460886  0.31469371  1.0
  Y  Y516  1  0.40880933  0.07794219  0.31469371  1.0
  Y  Y517  1  0.40880933  0.41127552  0.31469371  1.0
  Y  Y518  1  0.40880933  0.74460886  0.31469371  1.0
  Y  Y519  1  0.74214267  0.07794219  0.31469371  1.0
  Y  Y520  1  0.74214267  0.41127552  0.31469371  1.0
  Y  Y521  1  0.74214267  0.74460886  0.31469371  1.0
  Y  Y522  1  0.00000000  0.30525514  0.36051029  1.0
  Y  Y523  1  0.00000000  0.63858848  0.36051029  1.0
  Y  Y524  1  0.00000000  0.97192181  0.36051029  1.0
  Y  Y525  1  0.33333333  0.30525514  0.36051029  1.0
  Y  Y526  1  0.33333333  0.63858848  0.36051029  1.0
  Y  Y527  1  0.33333333  0.97192181  0.36051029  1.0
  Y  Y528  1  0.66666667  0.30525514  0.36051029  1.0
  Y  Y529  1  0.66666667  0.63858848  0.36051029  1.0
  Y  Y530  1  0.66666667  0.97192181  0.36051029  1.0
  Y  Y531  1  0.16666667  0.18620752  0.28908171  1.0
  Y  Y532  1  0.16666667  0.51954086  0.28908171  1.0
  Y  Y533  1  0.16666667  0.85287419  0.28908171  1.0
  Y  Y534  1  0.50000000  0.18620752  0.28908171  1.0
  Y  Y535  1  0.50000000  0.51954086  0.28908171  1.0
  Y  Y536  1  0.50000000  0.85287419  0.28908171  1.0
  Y  Y537  1  0.83333333  0.18620752  0.28908171  1.0
  Y  Y538  1  0.83333333  0.51954086  0.28908171  1.0
  Y  Y539  1  0.83333333  0.85287419  0.28908171  1.0
