# generated using pymatgen
data_Y4Ni
_symmetry_space_group_name_H-M   'P 1'
_cell_length_a   32.13079199
_cell_length_b   39.35202270
_cell_length_c   33.86882857
_cell_angle_alpha   97.41755579
_cell_angle_beta   90.00000000
_cell_angle_gamma   114.09484255
_symmetry_Int_Tables_number   1
_chemical_formula_structural   Y4Ni
_chemical_formula_sum   'Y432 Ni108'
_cell_volume   38700.01036356
_cell_formula_units_Z   108
loop_
 _symmetry_equiv_pos_site_id
 _symmetry_equiv_pos_as_xyz
  1  'x, y, z'
loop_
 _atom_site_type_symbol
 _atom_site_label
 _atom_site_symmetry_multiplicity
 _atom_site_fract_x
 _atom_site_fract_y
 _atom_site_fract_z
 _atom_site_occupancy
  Ni  Ni0  1  0.31806114  0.28784862  0.13645414  1.0
  Ni  Ni1  1  0.31806114  0.62118195  0.13645414  1.0
  Ni  Ni2  1  0.31806114  0.95451529  0.13645414  1.0
  Ni  Ni3  1  0.65139448  0.28784862  0.13645414  1.0
  Ni  Ni4  1  0.65139448  0.62118195  0.13645414  1.0
  Ni  Ni5  1  0.65139448  0.95451529  0.13645414  1.0
  Ni  Ni6  1  0.98472781  0.28784862  0.13645414  1.0
  Ni  Ni7  1  0.98472781  0.62118195  0.13645414  1.0
  Ni  Ni8  1  0.98472781  0.95451529  0.13645414  1.0
  Ni  Ni9  1  0.07996590  0.14499148  0.06502557  1.0
  Ni  Ni10  1  0.07996590  0.47832481  0.06502557  1.0
  Ni  Ni11  1  0.07996590  0.81165814  0.06502557  1.0
  Ni  Ni12  1  0.41329924  0.14499148  0.06502557  1.0
  Ni  Ni13  1  0.41329924  0.47832481  0.06502557  1.0
  Ni  Ni14  1  0.41329924  0.81165814  0.06502557  1.0
  Ni  Ni15  1  0.74663257  0.14499148  0.06502557  1.0
  Ni  Ni16  1  0.74663257  0.47832481  0.06502557  1.0
  Ni  Ni17  1  0.74663257  0.81165814  0.06502557  1.0
  Ni  Ni18  1  0.11568019  0.04975338  0.10073986  1.0
  Ni  Ni19  1  0.11568019  0.38308671  0.10073986  1.0
  Ni  Ni20  1  0.11568019  0.71642005  0.10073986  1.0
  Ni  Ni21  1  0.44901352  0.04975338  0.10073986  1.0
  Ni  Ni22  1  0.44901352  0.38308671  0.10073986  1.0
  Ni  Ni23  1  0.44901352  0.71642005  0.10073986  1.0
  Ni  Ni24  1  0.78234686  0.04975338  0.10073986  1.0
  Ni  Ni25  1  0.78234686  0.38308671  0.10073986  1.0
  Ni  Ni26  1  0.78234686  0.71642005  0.10073986  1.0
  Ni  Ni27  1  0.21091829  0.24022957  0.02931129  1.0
  Ni  Ni28  1  0.21091829  0.57356290  0.02931129  1.0
  Ni  Ni29  1  0.21091829  0.90689624  0.02931129  1.0
  Ni  Ni30  1  0.54425162  0.24022957  0.02931129  1.0
  Ni  Ni31  1  0.54425162  0.57356290  0.02931129  1.0
  Ni  Ni32  1  0.54425162  0.90689624  0.02931129  1.0
  Ni  Ni33  1  0.87758495  0.24022957  0.02931129  1.0
  Ni  Ni34  1  0.87758495  0.57356290  0.02931129  1.0
  Ni  Ni35  1  0.87758495  0.90689624  0.02931129  1.0
  Ni  Ni36  1  0.12758495  0.24022957  0.27931129  1.0
  Ni  Ni37  1  0.12758495  0.57356290  0.27931129  1.0
  Ni  Ni38  1  0.12758495  0.90689624  0.27931129  1.0
  Ni  Ni39  1  0.46091829  0.24022957  0.27931129  1.0
  Ni  Ni40  1  0.46091829  0.57356290  0.27931129  1.0
  Ni  Ni41  1  0.46091829  0.90689624  0.27931129  1.0
  Ni  Ni42  1  0.79425162  0.24022957  0.27931129  1.0
  Ni  Ni43  1  0.79425162  0.57356290  0.27931129  1.0
  Ni  Ni44  1  0.79425162  0.90689624  0.27931129  1.0
  Ni  Ni45  1  0.22282305  0.09737243  0.20788271  1.0
  Ni  Ni46  1  0.22282305  0.43070576  0.20788271  1.0
  Ni  Ni47  1  0.22282305  0.76403910  0.20788271  1.0
  Ni  Ni48  1  0.55615638  0.09737243  0.20788271  1.0
  Ni  Ni49  1  0.55615638  0.43070576  0.20788271  1.0
  Ni  Ni50  1  0.55615638  0.76403910  0.20788271  1.0
  Ni  Ni51  1  0.88948971  0.09737243  0.20788271  1.0
  Ni  Ni52  1  0.88948971  0.43070576  0.20788271  1.0
  Ni  Ni53  1  0.88948971  0.76403910  0.20788271  1.0
  Ni  Ni54  1  0.25853733  0.00213433  0.24359700  1.0
  Ni  Ni55  1  0.25853733  0.33546767  0.24359700  1.0
  Ni  Ni56  1  0.25853733  0.66880100  0.24359700  1.0
  Ni  Ni57  1  0.59187067  0.00213433  0.24359700  1.0
  Ni  Ni58  1  0.59187067  0.33546767  0.24359700  1.0
  Ni  Ni59  1  0.59187067  0.66880100  0.24359700  1.0
  Ni  Ni60  1  0.92520400  0.00213433  0.24359700  1.0
  Ni  Ni61  1  0.92520400  0.33546767  0.24359700  1.0
  Ni  Ni62  1  0.92520400  0.66880100  0.24359700  1.0
  Ni  Ni63  1  0.02044210  0.19261052  0.17216843  1.0
  Ni  Ni64  1  0.02044210  0.52594386  0.17216843  1.0
  Ni  Ni65  1  0.02044210  0.85927719  0.17216843  1.0
  Ni  Ni66  1  0.35377543  0.19261052  0.17216843  1.0
  Ni  Ni67  1  0.35377543  0.52594386  0.17216843  1.0
  Ni  Ni68  1  0.35377543  0.85927719  0.17216843  1.0
  Ni  Ni69  1  0.68710876  0.19261052  0.17216843  1.0
  Ni  Ni70  1  0.68710876  0.52594386  0.17216843  1.0
  Ni  Ni71  1  0.68710876  0.85927719  0.17216843  1.0
  Ni  Ni72  1  0.27044210  0.19261052  0.42216843  1.0
  Ni  Ni73  1  0.27044210  0.52594386  0.42216843  1.0
  Ni  Ni74  1  0.27044210  0.85927719  0.42216843  1.0
  Ni  Ni75  1  0.60377543  0.19261052  0.42216843  1.0
  Ni  Ni76  1  0.60377543  0.52594386  0.42216843  1.0
  Ni  Ni77  1  0.60377543  0.85927719  0.42216843  1.0
  Ni  Ni78  1  0.93710876  0.19261052  0.42216843  1.0
  Ni  Ni79  1  0.93710876  0.52594386  0.42216843  1.0
  Ni  Ni80  1  0.93710876  0.85927719  0.42216843  1.0
  Ni  Ni81  1  0.03234686  0.04975338  0.35073986  1.0
  Ni  Ni82  1  0.03234686  0.38308671  0.35073986  1.0
  Ni  Ni83  1  0.03234686  0.71642005  0.35073986  1.0
  Ni  Ni84  1  0.36568019  0.04975338  0.35073986  1.0
  Ni  Ni85  1  0.36568019  0.38308671  0.35073986  1.0
  Ni  Ni86  1  0.36568019  0.71642005  0.35073986  1.0
  Ni  Ni87  1  0.69901352  0.04975338  0.35073986  1.0
  Ni  Ni88  1  0.69901352  0.38308671  0.35073986  1.0
  Ni  Ni89  1  0.69901352  0.71642005  0.35073986  1.0
  Ni  Ni90  1  0.06806114  0.28784862  0.38645414  1.0
  Ni  Ni91  1  0.06806114  0.62118195  0.38645414  1.0
  Ni  Ni92  1  0.06806114  0.95451529  0.38645414  1.0
  Ni  Ni93  1  0.40139448  0.28784862  0.38645414  1.0
  Ni  Ni94  1  0.40139448  0.62118195  0.38645414  1.0
  Ni  Ni95  1  0.40139448  0.95451529  0.38645414  1.0
  Ni  Ni96  1  0.73472781  0.28784862  0.38645414  1.0
  Ni  Ni97  1  0.73472781  0.62118195  0.38645414  1.0
  Ni  Ni98  1  0.73472781  0.95451529  0.38645414  1.0
  Ni  Ni99  1  0.16329924  0.14499148  0.31502557  1.0
  Ni  Ni100  1  0.16329924  0.47832481  0.31502557  1.0
  Ni  Ni101  1  0.16329924  0.81165814  0.31502557  1.0
  Ni  Ni102  1  0.49663257  0.14499148  0.31502557  1.0
  Ni  Ni103  1  0.49663257  0.47832481  0.31502557  1.0
  Ni  Ni104  1  0.49663257  0.81165814  0.31502557  1.0
  Ni  Ni105  1  0.82996590  0.14499148  0.31502557  1.0
  Ni  Ni106  1  0.82996590  0.47832481  0.31502557  1.0
  Ni  Ni107  1  0.82996590  0.81165814  0.31502557  1.0
  Y  Y108  1  0.18733000  0.10186233  0.08119900  1.0
  Y  Y109  1  0.18733000  0.43519567  0.08119900  1.0
  Y  Y110  1  0.18733000  0.76852900  0.08119900  1.0
  Y  Y111  1  0.52066333  0.10186233  0.08119900  1.0
  Y  Y112  1  0.52066333  0.43519567  0.08119900  1.0
  Y  Y113  1  0.52066333  0.76852900  0.08119900  1.0
  Y  Y114  1  0.85399667  0.10186233  0.08119900  1.0
  Y  Y115  1  0.85399667  0.43519567  0.08119900  1.0
  Y  Y116  1  0.85399667  0.76852900  0.08119900  1.0
  Y  Y117  1  0.28256810  0.29233852  0.00977043  1.0
  Y  Y118  1  0.28256810  0.62567186  0.00977043  1.0
  Y  Y119  1  0.28256810  0.95900519  0.00977043  1.0
  Y  Y120  1  0.61590143  0.29233852  0.00977043  1.0
  Y  Y121  1  0.61590143  0.62567186  0.00977043  1.0
  Y  Y122  1  0.61590143  0.95900519  0.00977043  1.0
  Y  Y123  1  0.94923476  0.29233852  0.00977043  1.0
  Y  Y124  1  0.94923476  0.62567186  0.00977043  1.0
  Y  Y125  1  0.94923476  0.95900519  0.00977043  1.0
  Y  Y126  1  0.05705762  0.02369890  0.04211729  1.0
  Y  Y127  1  0.05705762  0.35703224  0.04211729  1.0
  Y  Y128  1  0.05705762  0.69036557  0.04211729  1.0
  Y  Y129  1  0.39039095  0.02369890  0.04211729  1.0
  Y  Y130  1  0.39039095  0.35703224  0.04211729  1.0
  Y  Y131  1  0.39039095  0.69036557  0.04211729  1.0
  Y  Y132  1  0.72372429  0.02369890  0.04211729  1.0
  Y  Y133  1  0.72372429  0.35703224  0.04211729  1.0
  Y  Y134  1  0.72372429  0.69036557  0.04211729  1.0
  Y  Y135  1  0.29515286  0.16655605  0.11354586  1.0
  Y  Y136  1  0.29515286  0.49988938  0.11354586  1.0
  Y  Y137  1  0.29515286  0.83322271  0.11354586  1.0
  Y  Y138  1  0.62848619  0.16655605  0.11354586  1.0
  Y  Y139  1  0.62848619  0.49988938  0.11354586  1.0
  Y  Y140  1  0.62848619  0.83322271  0.11354586  1.0
  Y  Y141  1  0.96181952  0.16655605  0.11354586  1.0
  Y  Y142  1  0.96181952  0.49988938  0.11354586  1.0
  Y  Y143  1  0.96181952  0.83322271  0.11354586  1.0
  Y  Y144  1  0.13522105  0.33097776  0.12028071  1.0
  Y  Y145  1  0.13522105  0.66431110  0.12028071  1.0
  Y  Y146  1  0.13522105  0.99764443  0.12028071  1.0
  Y  Y147  1  0.46855438  0.33097776  0.12028071  1.0
  Y  Y148  1  0.46855438  0.66431110  0.12028071  1.0
  Y  Y149  1  0.46855438  0.99764443  0.12028071  1.0
  Y  Y150  1  0.80188771  0.33097776  0.12028071  1.0
  Y  Y151  1  0.80188771  0.66431110  0.12028071  1.0
  Y  Y152  1  0.80188771  0.99764443  0.12028071  1.0
  Y  Y153  1  0.23045914  0.18812062  0.04885214  1.0
  Y  Y154  1  0.23045914  0.52145395  0.04885214  1.0
  Y  Y155  1  0.23045914  0.85478729  0.04885214  1.0
  Y  Y156  1  0.56379248  0.18812062  0.04885214  1.0
  Y  Y157  1  0.56379248  0.52145395  0.04885214  1.0
  Y  Y158  1  0.56379248  0.85478729  0.04885214  1.0
  Y  Y159  1  0.89712581  0.18812062  0.04885214  1.0
  Y  Y160  1  0.89712581  0.52145395  0.04885214  1.0
  Y  Y161  1  0.89712581  0.85478729  0.04885214  1.0
  Y  Y162  1  0.23382657  0.02818881  0.05221957  1.0
  Y  Y163  1  0.23382657  0.36152214  0.05221957  1.0
  Y  Y164  1  0.23382657  0.69485548  0.05221957  1.0
  Y  Y165  1  0.56715990  0.02818881  0.05221957  1.0
  Y  Y166  1  0.56715990  0.36152214  0.05221957  1.0
  Y  Y167  1  0.56715990  0.69485548  0.05221957  1.0
  Y  Y168  1  0.90049324  0.02818881  0.05221957  1.0
  Y  Y169  1  0.90049324  0.36152214  0.05221957  1.0
  Y  Y170  1  0.90049324  0.69485548  0.05221957  1.0
  Y  Y171  1  0.13858848  0.17104595  0.12364814  1.0
  Y  Y172  1  0.13858848  0.50437929  0.12364814  1.0
  Y  Y173  1  0.13858848  0.83771262  0.12364814  1.0
  Y  Y174  1  0.47192181  0.17104595  0.12364814  1.0
  Y  Y175  1  0.47192181  0.50437929  0.12364814  1.0
  Y  Y176  1  0.47192181  0.83771262  0.12364814  1.0
  Y  Y177  1  0.80525514  0.17104595  0.12364814  1.0
  Y  Y178  1  0.80525514  0.50437929  0.12364814  1.0
  Y  Y179  1  0.80525514  0.83771262  0.12364814  1.0
  Y  Y180  1  0.10355419  0.28335871  0.01313786  1.0
  Y  Y181  1  0.10355419  0.61669205  0.01313786  1.0
  Y  Y182  1  0.10355419  0.95002538  0.01313786  1.0
  Y  Y183  1  0.43688752  0.28335871  0.01313786  1.0
  Y  Y184  1  0.43688752  0.61669205  0.01313786  1.0
  Y  Y185  1  0.43688752  0.95002538  0.01313786  1.0
  Y  Y186  1  0.77022086  0.28335871  0.01313786  1.0
  Y  Y187  1  0.77022086  0.61669205  0.01313786  1.0
  Y  Y188  1  0.77022086  0.95002538  0.01313786  1.0
  Y  Y189  1  0.00831610  0.09288252  0.08456643  1.0
  Y  Y190  1  0.00831610  0.42621586  0.08456643  1.0
  Y  Y191  1  0.00831610  0.75954919  0.08456643  1.0
  Y  Y192  1  0.34164943  0.09288252  0.08456643  1.0
  Y  Y193  1  0.34164943  0.42621586  0.08456643  1.0
  Y  Y194  1  0.34164943  0.75954919  0.08456643  1.0
  Y  Y195  1  0.67498276  0.09288252  0.08456643  1.0
  Y  Y196  1  0.67498276  0.42621586  0.08456643  1.0
  Y  Y197  1  0.67498276  0.75954919  0.08456643  1.0
  Y  Y198  1  0.27358829  0.12342690  0.01650529  1.0
  Y  Y199  1  0.27358829  0.45676024  0.01650529  1.0
  Y  Y200  1  0.27358829  0.79009357  0.01650529  1.0
  Y  Y201  1  0.60692162  0.12342690  0.01650529  1.0
  Y  Y202  1  0.60692162  0.45676024  0.01650529  1.0
  Y  Y203  1  0.60692162  0.79009357  0.01650529  1.0
  Y  Y204  1  0.94025495  0.12342690  0.01650529  1.0
  Y  Y205  1  0.94025495  0.45676024  0.01650529  1.0
  Y  Y206  1  0.94025495  0.79009357  0.01650529  1.0
  Y  Y207  1  0.17835019  0.26628405  0.08793386  1.0
  Y  Y208  1  0.17835019  0.59961738  0.08793386  1.0
  Y  Y209  1  0.17835019  0.93295071  0.08793386  1.0
  Y  Y210  1  0.51168352  0.26628405  0.08793386  1.0
  Y  Y211  1  0.51168352  0.59961738  0.08793386  1.0
  Y  Y212  1  0.51168352  0.93295071  0.08793386  1.0
  Y  Y213  1  0.84501686  0.26628405  0.08793386  1.0
  Y  Y214  1  0.84501686  0.59961738  0.08793386  1.0
  Y  Y215  1  0.84501686  0.93295071  0.08793386  1.0
  Y  Y216  1  0.29852029  0.00662424  0.11691329  1.0
  Y  Y217  1  0.29852029  0.33995757  0.11691329  1.0
  Y  Y218  1  0.29852029  0.67329090  0.11691329  1.0
  Y  Y219  1  0.63185362  0.00662424  0.11691329  1.0
  Y  Y220  1  0.63185362  0.33995757  0.11691329  1.0
  Y  Y221  1  0.63185362  0.67329090  0.11691329  1.0
  Y  Y222  1  0.96518695  0.00662424  0.11691329  1.0
  Y  Y223  1  0.96518695  0.33995757  0.11691329  1.0
  Y  Y224  1  0.96518695  0.67329090  0.11691329  1.0
  Y  Y225  1  0.06042505  0.19710043  0.04548471  1.0
  Y  Y226  1  0.06042505  0.53043376  0.04548471  1.0
  Y  Y227  1  0.06042505  0.86376710  0.04548471  1.0
  Y  Y228  1  0.39375838  0.19710043  0.04548471  1.0
  Y  Y229  1  0.39375838  0.53043376  0.04548471  1.0
  Y  Y230  1  0.39375838  0.86376710  0.04548471  1.0
  Y  Y231  1  0.72709171  0.19710043  0.04548471  1.0
  Y  Y232  1  0.72709171  0.53043376  0.04548471  1.0
  Y  Y233  1  0.72709171  0.86376710  0.04548471  1.0
  Y  Y234  1  0.01729590  0.26179414  0.07783157  1.0
  Y  Y235  1  0.01729590  0.59512748  0.07783157  1.0
  Y  Y236  1  0.01729590  0.92846081  0.07783157  1.0
  Y  Y237  1  0.35062924  0.26179414  0.07783157  1.0
  Y  Y238  1  0.35062924  0.59512748  0.07783157  1.0
  Y  Y239  1  0.35062924  0.92846081  0.07783157  1.0
  Y  Y240  1  0.68396257  0.26179414  0.07783157  1.0
  Y  Y241  1  0.68396257  0.59512748  0.07783157  1.0
  Y  Y242  1  0.68396257  0.92846081  0.07783157  1.0
  Y  Y243  1  0.11253400  0.11893700  0.00640300  1.0
  Y  Y244  1  0.11253400  0.45227033  0.00640300  1.0
  Y  Y245  1  0.11253400  0.78560367  0.00640300  1.0
  Y  Y246  1  0.44586733  0.11893700  0.00640300  1.0
  Y  Y247  1  0.44586733  0.45227033  0.00640300  1.0
  Y  Y248  1  0.44586733  0.78560367  0.00640300  1.0
  Y  Y249  1  0.77920067  0.11893700  0.00640300  1.0
  Y  Y250  1  0.77920067  0.45227033  0.00640300  1.0
  Y  Y251  1  0.77920067  0.78560367  0.00640300  1.0
  Y  Y252  1  0.33018714  0.05424329  0.22405614  1.0
  Y  Y253  1  0.33018714  0.38757662  0.22405614  1.0
  Y  Y254  1  0.33018714  0.72090995  0.22405614  1.0
  Y  Y255  1  0.66352048  0.05424329  0.22405614  1.0
  Y  Y256  1  0.66352048  0.38757662  0.22405614  1.0
  Y  Y257  1  0.66352048  0.72090995  0.22405614  1.0
  Y  Y258  1  0.99685381  0.05424329  0.22405614  1.0
  Y  Y259  1  0.99685381  0.38757662  0.22405614  1.0
  Y  Y260  1  0.99685381  0.72090995  0.22405614  1.0
  Y  Y261  1  0.09209190  0.24471948  0.15262757  1.0
  Y  Y262  1  0.09209190  0.57805281  0.15262757  1.0
  Y  Y263  1  0.09209190  0.91138614  0.15262757  1.0
  Y  Y264  1  0.42542524  0.24471948  0.15262757  1.0
  Y  Y265  1  0.42542524  0.57805281  0.15262757  1.0
  Y  Y266  1  0.42542524  0.91138614  0.15262757  1.0
  Y  Y267  1  0.75875857  0.24471948  0.15262757  1.0
  Y  Y268  1  0.75875857  0.57805281  0.15262757  1.0
  Y  Y269  1  0.75875857  0.91138614  0.15262757  1.0
  Y  Y270  1  0.19991476  0.30941319  0.18497443  1.0
  Y  Y271  1  0.19991476  0.64274652  0.18497443  1.0
  Y  Y272  1  0.19991476  0.97607986  0.18497443  1.0
  Y  Y273  1  0.53324810  0.30941319  0.18497443  1.0
  Y  Y274  1  0.53324810  0.64274652  0.18497443  1.0
  Y  Y275  1  0.53324810  0.97607986  0.18497443  1.0
  Y  Y276  1  0.86658143  0.30941319  0.18497443  1.0
  Y  Y277  1  0.86658143  0.64274652  0.18497443  1.0
  Y  Y278  1  0.86658143  0.97607986  0.18497443  1.0
  Y  Y279  1  0.10467667  0.11893700  0.25640300  1.0
  Y  Y280  1  0.10467667  0.45227033  0.25640300  1.0
  Y  Y281  1  0.10467667  0.78560367  0.25640300  1.0
  Y  Y282  1  0.43801000  0.11893700  0.25640300  1.0
  Y  Y283  1  0.43801000  0.45227033  0.25640300  1.0
  Y  Y284  1  0.43801000  0.78560367  0.25640300  1.0
  Y  Y285  1  0.77134333  0.11893700  0.25640300  1.0
  Y  Y286  1  0.77134333  0.45227033  0.25640300  1.0
  Y  Y287  1  0.77134333  0.78560367  0.25640300  1.0
  Y  Y288  1  0.27807819  0.28335871  0.26313786  1.0
  Y  Y289  1  0.27807819  0.61669205  0.26313786  1.0
  Y  Y290  1  0.27807819  0.95002538  0.26313786  1.0
  Y  Y291  1  0.61141152  0.28335871  0.26313786  1.0
  Y  Y292  1  0.61141152  0.61669205  0.26313786  1.0
  Y  Y293  1  0.61141152  0.95002538  0.26313786  1.0
  Y  Y294  1  0.94474486  0.28335871  0.26313786  1.0
  Y  Y295  1  0.94474486  0.61669205  0.26313786  1.0
  Y  Y296  1  0.94474486  0.95002538  0.26313786  1.0
  Y  Y297  1  0.03998295  0.14050157  0.19170929  1.0
  Y  Y298  1  0.03998295  0.47383490  0.19170929  1.0
  Y  Y299  1  0.03998295  0.80716824  0.19170929  1.0
  Y  Y300  1  0.37331629  0.14050157  0.19170929  1.0
  Y  Y301  1  0.37331629  0.47383490  0.19170929  1.0
  Y  Y302  1  0.37331629  0.80716824  0.19170929  1.0
  Y  Y303  1  0.70664962  0.14050157  0.19170929  1.0
  Y  Y304  1  0.70664962  0.47383490  0.19170929  1.0
  Y  Y305  1  0.70664962  0.80716824  0.19170929  1.0
  Y  Y306  1  0.04335038  0.31390310  0.19507671  1.0
  Y  Y307  1  0.04335038  0.64723643  0.19507671  1.0
  Y  Y308  1  0.04335038  0.98056976  0.19507671  1.0
  Y  Y309  1  0.37668371  0.31390310  0.19507671  1.0
  Y  Y310  1  0.37668371  0.64723643  0.19507671  1.0
  Y  Y311  1  0.37668371  0.98056976  0.19507671  1.0
  Y  Y312  1  0.71001705  0.31390310  0.19507671  1.0
  Y  Y313  1  0.71001705  0.64723643  0.19507671  1.0
  Y  Y314  1  0.71001705  0.98056976  0.19507671  1.0
  Y  Y315  1  0.28144562  0.12342690  0.26650529  1.0
  Y  Y316  1  0.28144562  0.45676024  0.26650529  1.0
  Y  Y317  1  0.28144562  0.79009357  0.26650529  1.0
  Y  Y318  1  0.61477895  0.12342690  0.26650529  1.0
  Y  Y319  1  0.61477895  0.45676024  0.26650529  1.0
  Y  Y320  1  0.61477895  0.79009357  0.26650529  1.0
  Y  Y321  1  0.94811229  0.12342690  0.26650529  1.0
  Y  Y322  1  0.94811229  0.45676024  0.26650529  1.0
  Y  Y323  1  0.94811229  0.79009357  0.26650529  1.0
  Y  Y324  1  0.24641133  0.23573967  0.15599500  1.0
  Y  Y325  1  0.24641133  0.56907300  0.15599500  1.0
  Y  Y326  1  0.24641133  0.90240633  0.15599500  1.0
  Y  Y327  1  0.57974467  0.23573967  0.15599500  1.0
  Y  Y328  1  0.57974467  0.56907300  0.15599500  1.0
  Y  Y329  1  0.57974467  0.90240633  0.15599500  1.0
  Y  Y330  1  0.91307800  0.23573967  0.15599500  1.0
  Y  Y331  1  0.91307800  0.56907300  0.15599500  1.0
  Y  Y332  1  0.91307800  0.90240633  0.15599500  1.0
  Y  Y333  1  0.15117324  0.04526348  0.22742357  1.0
  Y  Y334  1  0.15117324  0.37859681  0.22742357  1.0
  Y  Y335  1  0.15117324  0.71193014  0.22742357  1.0
  Y  Y336  1  0.48450657  0.04526348  0.22742357  1.0
  Y  Y337  1  0.48450657  0.37859681  0.22742357  1.0
  Y  Y338  1  0.48450657  0.71193014  0.22742357  1.0
  Y  Y339  1  0.81783990  0.04526348  0.22742357  1.0
  Y  Y340  1  0.81783990  0.37859681  0.22742357  1.0
  Y  Y341  1  0.81783990  0.71193014  0.22742357  1.0
  Y  Y342  1  0.08311210  0.07580786  0.15936243  1.0
  Y  Y343  1  0.08311210  0.40914119  0.15936243  1.0
  Y  Y344  1  0.08311210  0.74247452  0.15936243  1.0
  Y  Y345  1  0.41644543  0.07580786  0.15936243  1.0
  Y  Y346  1  0.41644543  0.40914119  0.15936243  1.0
  Y  Y347  1  0.41644543  0.74247452  0.15936243  1.0
  Y  Y348  1  0.74977876  0.07580786  0.15936243  1.0
  Y  Y349  1  0.74977876  0.40914119  0.15936243  1.0
  Y  Y350  1  0.74977876  0.74247452  0.15936243  1.0
  Y  Y351  1  0.32120733  0.21866500  0.23079100  1.0
  Y  Y352  1  0.32120733  0.55199833  0.23079100  1.0
  Y  Y353  1  0.32120733  0.88533167  0.23079100  1.0
  Y  Y354  1  0.65454067  0.21866500  0.23079100  1.0
  Y  Y355  1  0.65454067  0.55199833  0.23079100  1.0
  Y  Y356  1  0.65454067  0.88533167  0.23079100  1.0
  Y  Y357  1  0.98787400  0.21866500  0.23079100  1.0
  Y  Y358  1  0.98787400  0.55199833  0.23079100  1.0
  Y  Y359  1  0.98787400  0.88533167  0.23079100  1.0
  Y  Y360  1  0.10804410  0.29233852  0.25977043  1.0
  Y  Y361  1  0.10804410  0.62567186  0.25977043  1.0
  Y  Y362  1  0.10804410  0.95900519  0.25977043  1.0
  Y  Y363  1  0.44137743  0.29233852  0.25977043  1.0
  Y  Y364  1  0.44137743  0.62567186  0.25977043  1.0
  Y  Y365  1  0.44137743  0.95900519  0.25977043  1.0
  Y  Y366  1  0.77471076  0.29233852  0.25977043  1.0
  Y  Y367  1  0.77471076  0.62567186  0.25977043  1.0
  Y  Y368  1  0.77471076  0.95900519  0.25977043  1.0
  Y  Y369  1  0.20328219  0.14948138  0.18834186  1.0
  Y  Y370  1  0.20328219  0.48281471  0.18834186  1.0
  Y  Y371  1  0.20328219  0.81614805  0.18834186  1.0
  Y  Y372  1  0.53661552  0.14948138  0.18834186  1.0
  Y  Y373  1  0.53661552  0.48281471  0.18834186  1.0
  Y  Y374  1  0.53661552  0.81614805  0.18834186  1.0
  Y  Y375  1  0.86994886  0.14948138  0.18834186  1.0
  Y  Y376  1  0.86994886  0.48281471  0.18834186  1.0
  Y  Y377  1  0.86994886  0.81614805  0.18834186  1.0
  Y  Y378  1  0.16015305  0.21417510  0.22068871  1.0
  Y  Y379  1  0.16015305  0.54750843  0.22068871  1.0
  Y  Y380  1  0.16015305  0.88084176  0.22068871  1.0
  Y  Y381  1  0.49348638  0.21417510  0.22068871  1.0
  Y  Y382  1  0.49348638  0.54750843  0.22068871  1.0
  Y  Y383  1  0.49348638  0.88084176  0.22068871  1.0
  Y  Y384  1  0.82681971  0.21417510  0.22068871  1.0
  Y  Y385  1  0.82681971  0.54750843  0.22068871  1.0
  Y  Y386  1  0.82681971  0.88084176  0.22068871  1.0
  Y  Y387  1  0.25539114  0.07131795  0.14926014  1.0
  Y  Y388  1  0.25539114  0.40465129  0.14926014  1.0
  Y  Y389  1  0.25539114  0.73798462  0.14926014  1.0
  Y  Y390  1  0.58872448  0.07131795  0.14926014  1.0
  Y  Y391  1  0.58872448  0.40465129  0.14926014  1.0
  Y  Y392  1  0.58872448  0.73798462  0.14926014  1.0
  Y  Y393  1  0.92205781  0.07131795  0.14926014  1.0
  Y  Y394  1  0.92205781  0.40465129  0.14926014  1.0
  Y  Y395  1  0.92205781  0.73798462  0.14926014  1.0
  Y  Y396  1  0.13971095  0.00662424  0.36691329  1.0
  Y  Y397  1  0.13971095  0.33995757  0.36691329  1.0
  Y  Y398  1  0.13971095  0.67329090  0.36691329  1.0
  Y  Y399  1  0.47304429  0.00662424  0.36691329  1.0
  Y  Y400  1  0.47304429  0.33995757  0.36691329  1.0
  Y  Y401  1  0.47304429  0.67329090  0.36691329  1.0
  Y  Y402  1  0.80637762  0.00662424  0.36691329  1.0
  Y  Y403  1  0.80637762  0.33995757  0.36691329  1.0
  Y  Y404  1  0.80637762  0.67329090  0.36691329  1.0
  Y  Y405  1  0.23494905  0.19710043  0.29548471  1.0
  Y  Y406  1  0.23494905  0.53043376  0.29548471  1.0
  Y  Y407  1  0.23494905  0.86376710  0.29548471  1.0
  Y  Y408  1  0.56828238  0.19710043  0.29548471  1.0
  Y  Y409  1  0.56828238  0.53043376  0.29548471  1.0
  Y  Y410  1  0.56828238  0.86376710  0.29548471  1.0
  Y  Y411  1  0.90161571  0.19710043  0.29548471  1.0
  Y  Y412  1  0.90161571  0.53043376  0.29548471  1.0
  Y  Y413  1  0.90161571  0.86376710  0.29548471  1.0
  Y  Y414  1  0.00943857  0.26179414  0.32783157  1.0
  Y  Y415  1  0.00943857  0.59512748  0.32783157  1.0
  Y  Y416  1  0.00943857  0.92846081  0.32783157  1.0
  Y  Y417  1  0.34277190  0.26179414  0.32783157  1.0
  Y  Y418  1  0.34277190  0.59512748  0.32783157  1.0
  Y  Y419  1  0.34277190  0.92846081  0.32783157  1.0
  Y  Y420  1  0.67610524  0.26179414  0.32783157  1.0
  Y  Y421  1  0.67610524  0.59512748  0.32783157  1.0
  Y  Y422  1  0.67610524  0.92846081  0.32783157  1.0
  Y  Y423  1  0.24753381  0.07131795  0.39926014  1.0
  Y  Y424  1  0.24753381  0.40465129  0.39926014  1.0
  Y  Y425  1  0.24753381  0.73798462  0.39926014  1.0
  Y  Y426  1  0.58086714  0.07131795  0.39926014  1.0
  Y  Y427  1  0.58086714  0.40465129  0.39926014  1.0
  Y  Y428  1  0.58086714  0.73798462  0.39926014  1.0
  Y  Y429  1  0.91420048  0.07131795  0.39926014  1.0
  Y  Y430  1  0.91420048  0.40465129  0.39926014  1.0
  Y  Y431  1  0.91420048  0.73798462  0.39926014  1.0
  Y  Y432  1  0.08760200  0.23573967  0.40599500  1.0
  Y  Y433  1  0.08760200  0.56907300  0.40599500  1.0
  Y  Y434  1  0.08760200  0.90240633  0.40599500  1.0
  Y  Y435  1  0.42093533  0.23573967  0.40599500  1.0
  Y  Y436  1  0.42093533  0.56907300  0.40599500  1.0
  Y  Y437  1  0.42093533  0.90240633  0.40599500  1.0
  Y  Y438  1  0.75426867  0.23573967  0.40599500  1.0
  Y  Y439  1  0.75426867  0.56907300  0.40599500  1.0
  Y  Y440  1  0.75426867  0.90240633  0.40599500  1.0
  Y  Y441  1  0.18284010  0.09288252  0.33456643  1.0
  Y  Y442  1  0.18284010  0.42621586  0.33456643  1.0
  Y  Y443  1  0.18284010  0.75954919  0.33456643  1.0
  Y  Y444  1  0.51617343  0.09288252  0.33456643  1.0
  Y  Y445  1  0.51617343  0.42621586  0.33456643  1.0
  Y  Y446  1  0.51617343  0.75954919  0.33456643  1.0
  Y  Y447  1  0.84950676  0.09288252  0.33456643  1.0
  Y  Y448  1  0.84950676  0.42621586  0.33456643  1.0
  Y  Y449  1  0.84950676  0.75954919  0.33456643  1.0
  Y  Y450  1  0.18620752  0.26628405  0.33793386  1.0
  Y  Y451  1  0.18620752  0.59961738  0.33793386  1.0
  Y  Y452  1  0.18620752  0.93295071  0.33793386  1.0
  Y  Y453  1  0.51954086  0.26628405  0.33793386  1.0
  Y  Y454  1  0.51954086  0.59961738  0.33793386  1.0
  Y  Y455  1  0.51954086  0.93295071  0.33793386  1.0
  Y  Y456  1  0.85287419  0.26628405  0.33793386  1.0
  Y  Y457  1  0.85287419  0.59961738  0.33793386  1.0
  Y  Y458  1  0.85287419  0.93295071  0.33793386  1.0
  Y  Y459  1  0.09096943  0.07580786  0.40936243  1.0
  Y  Y460  1  0.09096943  0.40914119  0.40936243  1.0
  Y  Y461  1  0.09096943  0.74247452  0.40936243  1.0
  Y  Y462  1  0.42430276  0.07580786  0.40936243  1.0
  Y  Y463  1  0.42430276  0.40914119  0.40936243  1.0
  Y  Y464  1  0.42430276  0.74247452  0.40936243  1.0
  Y  Y465  1  0.75763610  0.07580786  0.40936243  1.0
  Y  Y466  1  0.75763610  0.40914119  0.40936243  1.0
  Y  Y467  1  0.75763610  0.74247452  0.40936243  1.0
  Y  Y468  1  0.05593514  0.18812062  0.29885214  1.0
  Y  Y469  1  0.05593514  0.52145395  0.29885214  1.0
  Y  Y470  1  0.05593514  0.85478729  0.29885214  1.0
  Y  Y471  1  0.38926848  0.18812062  0.29885214  1.0
  Y  Y472  1  0.38926848  0.52145395  0.29885214  1.0
  Y  Y473  1  0.38926848  0.85478729  0.29885214  1.0
  Y  Y474  1  0.72260181  0.18812062  0.29885214  1.0
  Y  Y475  1  0.72260181  0.52145395  0.29885214  1.0
  Y  Y476  1  0.72260181  0.85478729  0.29885214  1.0
  Y  Y477  1  0.29403038  0.33097776  0.37028071  1.0
  Y  Y478  1  0.29403038  0.66431110  0.37028071  1.0
  Y  Y479  1  0.29403038  0.99764443  0.37028071  1.0
  Y  Y480  1  0.62736371  0.33097776  0.37028071  1.0
  Y  Y481  1  0.62736371  0.66431110  0.37028071  1.0
  Y  Y482  1  0.62736371  0.99764443  0.37028071  1.0
  Y  Y483  1  0.96069705  0.33097776  0.37028071  1.0
  Y  Y484  1  0.96069705  0.66431110  0.37028071  1.0
  Y  Y485  1  0.96069705  0.99764443  0.37028071  1.0
  Y  Y486  1  0.22596924  0.02818881  0.30221957  1.0
  Y  Y487  1  0.22596924  0.36152214  0.30221957  1.0
  Y  Y488  1  0.22596924  0.69485548  0.30221957  1.0
  Y  Y489  1  0.55930257  0.02818881  0.30221957  1.0
  Y  Y490  1  0.55930257  0.36152214  0.30221957  1.0
  Y  Y491  1  0.55930257  0.69485548  0.30221957  1.0
  Y  Y492  1  0.89263590  0.02818881  0.30221957  1.0
  Y  Y493  1  0.89263590  0.36152214  0.30221957  1.0
  Y  Y494  1  0.89263590  0.69485548  0.30221957  1.0
  Y  Y495  1  0.13073114  0.17104595  0.37364814  1.0
  Y  Y496  1  0.13073114  0.50437929  0.37364814  1.0
  Y  Y497  1  0.13073114  0.83771262  0.37364814  1.0
  Y  Y498  1  0.46406448  0.17104595  0.37364814  1.0
  Y  Y499  1  0.46406448  0.50437929  0.37364814  1.0
  Y  Y500  1  0.46406448  0.83771262  0.37364814  1.0
  Y  Y501  1  0.79739781  0.17104595  0.37364814  1.0
  Y  Y502  1  0.79739781  0.50437929  0.37364814  1.0
  Y  Y503  1  0.79739781  0.83771262  0.37364814  1.0
  Y  Y504  1  0.25090124  0.24471948  0.40262757  1.0
  Y  Y505  1  0.25090124  0.57805281  0.40262757  1.0
  Y  Y506  1  0.25090124  0.91138614  0.40262757  1.0
  Y  Y507  1  0.58423457  0.24471948  0.40262757  1.0
  Y  Y508  1  0.58423457  0.57805281  0.40262757  1.0
  Y  Y509  1  0.58423457  0.91138614  0.40262757  1.0
  Y  Y510  1  0.91756790  0.24471948  0.40262757  1.0
  Y  Y511  1  0.91756790  0.57805281  0.40262757  1.0
  Y  Y512  1  0.91756790  0.91138614  0.40262757  1.0
  Y  Y513  1  0.01280600  0.10186233  0.33119900  1.0
  Y  Y514  1  0.01280600  0.43519567  0.33119900  1.0
  Y  Y515  1  0.01280600  0.76852900  0.33119900  1.0
  Y  Y516  1  0.34613933  0.10186233  0.33119900  1.0
  Y  Y517  1  0.34613933  0.43519567  0.33119900  1.0
  Y  Y518  1  0.34613933  0.76852900  0.33119900  1.0
  Y  Y519  1  0.67947267  0.10186233  0.33119900  1.0
  Y  Y520  1  0.67947267  0.43519567  0.33119900  1.0
  Y  Y521  1  0.67947267  0.76852900  0.33119900  1.0
  Y  Y522  1  0.30301019  0.16655605  0.36354586  1.0
  Y  Y523  1  0.30301019  0.49988938  0.36354586  1.0
  Y  Y524  1  0.30301019  0.83322271  0.36354586  1.0
  Y  Y525  1  0.63634352  0.16655605  0.36354586  1.0
  Y  Y526  1  0.63634352  0.49988938  0.36354586  1.0
  Y  Y527  1  0.63634352  0.83322271  0.36354586  1.0
  Y  Y528  1  0.96967686  0.16655605  0.36354586  1.0
  Y  Y529  1  0.96967686  0.49988938  0.36354586  1.0
  Y  Y530  1  0.96967686  0.83322271  0.36354586  1.0
  Y  Y531  1  0.06491495  0.02369890  0.29211729  1.0
  Y  Y532  1  0.06491495  0.35703224  0.29211729  1.0
  Y  Y533  1  0.06491495  0.69036557  0.29211729  1.0
  Y  Y534  1  0.39824829  0.02369890  0.29211729  1.0
  Y  Y535  1  0.39824829  0.35703224  0.29211729  1.0
  Y  Y536  1  0.39824829  0.69036557  0.29211729  1.0
  Y  Y537  1  0.73158162  0.02369890  0.29211729  1.0
  Y  Y538  1  0.73158162  0.35703224  0.29211729  1.0
  Y  Y539  1  0.73158162  0.69036557  0.29211729  1.0
