# generated using pymatgen
data_Y4Ni
_symmetry_space_group_name_H-M   'P 1'
_cell_length_a   22.71990090
_cell_length_b   22.71990090
_cell_length_c   37.86650150
_cell_angle_alpha   120.00000000
_cell_angle_beta   60.00000000
_cell_angle_gamma   90.00000000
_symmetry_Int_Tables_number   1
_chemical_formula_structural   Y4Ni
_chemical_formula_sum   'Y144 Ni36'
_cell_volume   13821.43227270
_cell_formula_units_Z   36
loop_
 _symmetry_equiv_pos_site_id
 _symmetry_equiv_pos_as_xyz
  1  'x, y, z'
loop_
 _atom_site_type_symbol
 _atom_site_label
 _atom_site_symmetry_multiplicity
 _atom_site_fract_x
 _atom_site_fract_y
 _atom_site_fract_z
 _atom_site_occupancy
  Y  Y0  1  0.03773800  0.03773800  0.02264280  1.0
  Y  Y1  1  0.03773800  0.37107133  0.02264280  1.0
  Y  Y2  1  0.03773800  0.70440467  0.02264280  1.0
  Y  Y3  1  0.37107133  0.03773800  0.02264280  1.0
  Y  Y4  1  0.37107133  0.37107133  0.02264280  1.0
  Y  Y5  1  0.37107133  0.70440467  0.02264280  1.0
  Y  Y6  1  0.70440467  0.03773800  0.02264280  1.0
  Y  Y7  1  0.70440467  0.37107133  0.02264280  1.0
  Y  Y8  1  0.70440467  0.70440467  0.02264280  1.0
  Y  Y9  1  0.22011933  0.03773800  0.02264280  1.0
  Y  Y10  1  0.22011933  0.37107133  0.02264280  1.0
  Y  Y11  1  0.22011933  0.70440467  0.02264280  1.0
  Y  Y12  1  0.55345267  0.03773800  0.02264280  1.0
  Y  Y13  1  0.55345267  0.37107133  0.02264280  1.0
  Y  Y14  1  0.55345267  0.70440467  0.02264280  1.0
  Y  Y15  1  0.88678600  0.03773800  0.02264280  1.0
  Y  Y16  1  0.88678600  0.37107133  0.02264280  1.0
  Y  Y17  1  0.88678600  0.70440467  0.02264280  1.0
  Y  Y18  1  0.03773800  0.22011933  0.13207160  1.0
  Y  Y19  1  0.03773800  0.55345267  0.13207160  1.0
  Y  Y20  1  0.03773800  0.88678600  0.13207160  1.0
  Y  Y21  1  0.37107133  0.22011933  0.13207160  1.0
  Y  Y22  1  0.37107133  0.55345267  0.13207160  1.0
  Y  Y23  1  0.37107133  0.88678600  0.13207160  1.0
  Y  Y24  1  0.70440467  0.22011933  0.13207160  1.0
  Y  Y25  1  0.70440467  0.55345267  0.13207160  1.0
  Y  Y26  1  0.70440467  0.88678600  0.13207160  1.0
  Y  Y27  1  0.02988067  0.21226200  0.03207160  1.0
  Y  Y28  1  0.02988067  0.54559533  0.03207160  1.0
  Y  Y29  1  0.02988067  0.87892867  0.03207160  1.0
  Y  Y30  1  0.36321400  0.21226200  0.03207160  1.0
  Y  Y31  1  0.36321400  0.54559533  0.03207160  1.0
  Y  Y32  1  0.36321400  0.87892867  0.03207160  1.0
  Y  Y33  1  0.69654733  0.21226200  0.03207160  1.0
  Y  Y34  1  0.69654733  0.54559533  0.03207160  1.0
  Y  Y35  1  0.69654733  0.87892867  0.03207160  1.0
  Y  Y36  1  0.21226200  0.21226200  0.03207160  1.0
  Y  Y37  1  0.21226200  0.54559533  0.03207160  1.0
  Y  Y38  1  0.21226200  0.87892867  0.03207160  1.0
  Y  Y39  1  0.54559533  0.21226200  0.03207160  1.0
  Y  Y40  1  0.54559533  0.54559533  0.03207160  1.0
  Y  Y41  1  0.54559533  0.87892867  0.03207160  1.0
  Y  Y42  1  0.87892867  0.21226200  0.03207160  1.0
  Y  Y43  1  0.87892867  0.54559533  0.03207160  1.0
  Y  Y44  1  0.87892867  0.87892867  0.03207160  1.0
  Y  Y45  1  0.03773800  0.03773800  0.13207160  1.0
  Y  Y46  1  0.03773800  0.37107133  0.13207160  1.0
  Y  Y47  1  0.03773800  0.70440467  0.13207160  1.0
  Y  Y48  1  0.37107133  0.03773800  0.13207160  1.0
  Y  Y49  1  0.37107133  0.37107133  0.13207160  1.0
  Y  Y50  1  0.37107133  0.70440467  0.13207160  1.0
  Y  Y51  1  0.70440467  0.03773800  0.13207160  1.0
  Y  Y52  1  0.70440467  0.37107133  0.13207160  1.0
  Y  Y53  1  0.70440467  0.70440467  0.13207160  1.0
  Y  Y54  1  0.21226200  0.02988067  0.12264280  1.0
  Y  Y55  1  0.21226200  0.36321400  0.12264280  1.0
  Y  Y56  1  0.21226200  0.69654733  0.12264280  1.0
  Y  Y57  1  0.54559533  0.02988067  0.12264280  1.0
  Y  Y58  1  0.54559533  0.36321400  0.12264280  1.0
  Y  Y59  1  0.54559533  0.69654733  0.12264280  1.0
  Y  Y60  1  0.87892867  0.02988067  0.12264280  1.0
  Y  Y61  1  0.87892867  0.36321400  0.12264280  1.0
  Y  Y62  1  0.87892867  0.69654733  0.12264280  1.0
  Y  Y63  1  0.21226200  0.21226200  0.12264280  1.0
  Y  Y64  1  0.21226200  0.54559533  0.12264280  1.0
  Y  Y65  1  0.21226200  0.87892867  0.12264280  1.0
  Y  Y66  1  0.54559533  0.21226200  0.12264280  1.0
  Y  Y67  1  0.54559533  0.54559533  0.12264280  1.0
  Y  Y68  1  0.54559533  0.87892867  0.12264280  1.0
  Y  Y69  1  0.87892867  0.21226200  0.12264280  1.0
  Y  Y70  1  0.87892867  0.54559533  0.12264280  1.0
  Y  Y71  1  0.87892867  0.87892867  0.12264280  1.0
  Ni  Ni72  1  0.16666667  0.16666667  0.17735720  1.0
  Ni  Ni73  1  0.16666667  0.50000000  0.17735720  1.0
  Ni  Ni74  1  0.16666667  0.83333333  0.17735720  1.0
  Ni  Ni75  1  0.50000000  0.16666667  0.17735720  1.0
  Ni  Ni76  1  0.50000000  0.50000000  0.17735720  1.0
  Ni  Ni77  1  0.50000000  0.83333333  0.17735720  1.0
  Ni  Ni78  1  0.83333333  0.16666667  0.17735720  1.0
  Ni  Ni79  1  0.83333333  0.50000000  0.17735720  1.0
  Ni  Ni80  1  0.83333333  0.83333333  0.17735720  1.0
  Ni  Ni81  1  0.08333333  0.08333333  0.07735720  1.0
  Ni  Ni82  1  0.08333333  0.41666667  0.07735720  1.0
  Ni  Ni83  1  0.08333333  0.75000000  0.07735720  1.0
  Ni  Ni84  1  0.41666667  0.08333333  0.07735720  1.0
  Ni  Ni85  1  0.41666667  0.41666667  0.07735720  1.0
  Ni  Ni86  1  0.41666667  0.75000000  0.07735720  1.0
  Ni  Ni87  1  0.75000000  0.08333333  0.07735720  1.0
  Ni  Ni88  1  0.75000000  0.41666667  0.07735720  1.0
  Ni  Ni89  1  0.75000000  0.75000000  0.07735720  1.0
  Y  Y90  1  0.03773800  0.03773800  0.22264280  1.0
  Y  Y91  1  0.03773800  0.37107133  0.22264280  1.0
  Y  Y92  1  0.03773800  0.70440467  0.22264280  1.0
  Y  Y93  1  0.37107133  0.03773800  0.22264280  1.0
  Y  Y94  1  0.37107133  0.37107133  0.22264280  1.0
  Y  Y95  1  0.37107133  0.70440467  0.22264280  1.0
  Y  Y96  1  0.70440467  0.03773800  0.22264280  1.0
  Y  Y97  1  0.70440467  0.37107133  0.22264280  1.0
  Y  Y98  1  0.70440467  0.70440467  0.22264280  1.0
  Y  Y99  1  0.22011933  0.03773800  0.22264280  1.0
  Y  Y100  1  0.22011933  0.37107133  0.22264280  1.0
  Y  Y101  1  0.22011933  0.70440467  0.22264280  1.0
  Y  Y102  1  0.55345267  0.03773800  0.22264280  1.0
  Y  Y103  1  0.55345267  0.37107133  0.22264280  1.0
  Y  Y104  1  0.55345267  0.70440467  0.22264280  1.0
  Y  Y105  1  0.88678600  0.03773800  0.22264280  1.0
  Y  Y106  1  0.88678600  0.37107133  0.22264280  1.0
  Y  Y107  1  0.88678600  0.70440467  0.22264280  1.0
  Y  Y108  1  0.03773800  0.22011933  0.33207160  1.0
  Y  Y109  1  0.03773800  0.55345267  0.33207160  1.0
  Y  Y110  1  0.03773800  0.88678600  0.33207160  1.0
  Y  Y111  1  0.37107133  0.22011933  0.33207160  1.0
  Y  Y112  1  0.37107133  0.55345267  0.33207160  1.0
  Y  Y113  1  0.37107133  0.88678600  0.33207160  1.0
  Y  Y114  1  0.70440467  0.22011933  0.33207160  1.0
  Y  Y115  1  0.70440467  0.55345267  0.33207160  1.0
  Y  Y116  1  0.70440467  0.88678600  0.33207160  1.0
  Y  Y117  1  0.02988067  0.21226200  0.23207160  1.0
  Y  Y118  1  0.02988067  0.54559533  0.23207160  1.0
  Y  Y119  1  0.02988067  0.87892867  0.23207160  1.0
  Y  Y120  1  0.36321400  0.21226200  0.23207160  1.0
  Y  Y121  1  0.36321400  0.54559533  0.23207160  1.0
  Y  Y122  1  0.36321400  0.87892867  0.23207160  1.0
  Y  Y123  1  0.69654733  0.21226200  0.23207160  1.0
  Y  Y124  1  0.69654733  0.54559533  0.23207160  1.0
  Y  Y125  1  0.69654733  0.87892867  0.23207160  1.0
  Y  Y126  1  0.21226200  0.21226200  0.23207160  1.0
  Y  Y127  1  0.21226200  0.54559533  0.23207160  1.0
  Y  Y128  1  0.21226200  0.87892867  0.23207160  1.0
  Y  Y129  1  0.54559533  0.21226200  0.23207160  1.0
  Y  Y130  1  0.54559533  0.54559533  0.23207160  1.0
  Y  Y131  1  0.54559533  0.87892867  0.23207160  1.0
  Y  Y132  1  0.87892867  0.21226200  0.23207160  1.0
  Y  Y133  1  0.87892867  0.54559533  0.23207160  1.0
  Y  Y134  1  0.87892867  0.87892867  0.23207160  1.0
  Y  Y135  1  0.03773800  0.03773800  0.33207160  1.0
  Y  Y136  1  0.03773800  0.37107133  0.33207160  1.0
  Y  Y137  1  0.03773800  0.70440467  0.33207160  1.0
  Y  Y138  1  0.37107133  0.03773800  0.33207160  1.0
  Y  Y139  1  0.37107133  0.37107133  0.33207160  1.0
  Y  Y140  1  0.37107133  0.70440467  0.33207160  1.0
  Y  Y141  1  0.70440467  0.03773800  0.33207160  1.0
  Y  Y142  1  0.70440467  0.37107133  0.33207160  1.0
  Y  Y143  1  0.70440467  0.70440467  0.33207160  1.0
  Y  Y144  1  0.21226200  0.02988067  0.32264280  1.0
  Y  Y145  1  0.21226200  0.36321400  0.32264280  1.0
  Y  Y146  1  0.21226200  0.69654733  0.32264280  1.0
  Y  Y147  1  0.54559533  0.02988067  0.32264280  1.0
  Y  Y148  1  0.54559533  0.36321400  0.32264280  1.0
  Y  Y149  1  0.54559533  0.69654733  0.32264280  1.0
  Y  Y150  1  0.87892867  0.02988067  0.32264280  1.0
  Y  Y151  1  0.87892867  0.36321400  0.32264280  1.0
  Y  Y152  1  0.87892867  0.69654733  0.32264280  1.0
  Y  Y153  1  0.21226200  0.21226200  0.32264280  1.0
  Y  Y154  1  0.21226200  0.54559533  0.32264280  1.0
  Y  Y155  1  0.21226200  0.87892867  0.32264280  1.0
  Y  Y156  1  0.54559533  0.21226200  0.32264280  1.0
  Y  Y157  1  0.54559533  0.54559533  0.32264280  1.0
  Y  Y158  1  0.54559533  0.87892867  0.32264280  1.0
  Y  Y159  1  0.87892867  0.21226200  0.32264280  1.0
  Y  Y160  1  0.87892867  0.54559533  0.32264280  1.0
  Y  Y161  1  0.87892867  0.87892867  0.32264280  1.0
  Ni  Ni162  1  0.16666667  0.16666667  0.37735720  1.0
  Ni  Ni163  1  0.16666667  0.50000000  0.37735720  1.0
  Ni  Ni164  1  0.16666667  0.83333333  0.37735720  1.0
  Ni  Ni165  1  0.50000000  0.16666667  0.37735720  1.0
  Ni  Ni166  1  0.50000000  0.50000000  0.37735720  1.0
  Ni  Ni167  1  0.50000000  0.83333333  0.37735720  1.0
  Ni  Ni168  1  0.83333333  0.16666667  0.37735720  1.0
  Ni  Ni169  1  0.83333333  0.50000000  0.37735720  1.0
  Ni  Ni170  1  0.83333333  0.83333333  0.37735720  1.0
  Ni  Ni171  1  0.08333333  0.08333333  0.27735720  1.0
  Ni  Ni172  1  0.08333333  0.41666667  0.27735720  1.0
  Ni  Ni173  1  0.08333333  0.75000000  0.27735720  1.0
  Ni  Ni174  1  0.41666667  0.08333333  0.27735720  1.0
  Ni  Ni175  1  0.41666667  0.41666667  0.27735720  1.0
  Ni  Ni176  1  0.41666667  0.75000000  0.27735720  1.0
  Ni  Ni177  1  0.75000000  0.08333333  0.27735720  1.0
  Ni  Ni178  1  0.75000000  0.41666667  0.27735720  1.0
  Ni  Ni179  1  0.75000000  0.75000000  0.27735720  1.0
