# generated using pymatgen
data_YNi2
_symmetry_space_group_name_H-M   'P 1'
_cell_length_a   15.22014255
_cell_length_b   21.52453202
_cell_length_c   25.36690425
_cell_angle_alpha   90.00000000
_cell_angle_beta   90.00000000
_cell_angle_gamma   90.00000000
_symmetry_Int_Tables_number   1
_chemical_formula_structural   YNi2
_chemical_formula_sum   'Y72 Ni144'
_cell_volume   8310.36133715
_cell_formula_units_Z   72
loop_
 _symmetry_equiv_pos_site_id
 _symmetry_equiv_pos_as_xyz
  1  'x, y, z'
loop_
 _atom_site_type_symbol
 _atom_site_label
 _atom_site_symmetry_multiplicity
 _atom_site_fract_x
 _atom_site_fract_y
 _atom_site_fract_z
 _atom_site_occupancy
  Ni  Ni0  1  0.08333333  0.12500000  0.92500000  1.0
  Ni  Ni1  1  0.08333333  0.45833333  0.92500000  1.0
  Ni  Ni2  1  0.08333333  0.79166667  0.92500000  1.0
  Ni  Ni3  1  0.41666667  0.12500000  0.92500000  1.0
  Ni  Ni4  1  0.41666667  0.45833333  0.92500000  1.0
  Ni  Ni5  1  0.41666667  0.79166667  0.92500000  1.0
  Ni  Ni6  1  0.75000000  0.12500000  0.92500000  1.0
  Ni  Ni7  1  0.75000000  0.45833333  0.92500000  1.0
  Ni  Ni8  1  0.75000000  0.79166667  0.92500000  1.0
  Ni  Ni9  1  0.25000000  0.29166667  0.82500000  1.0
  Ni  Ni10  1  0.25000000  0.62500000  0.82500000  1.0
  Ni  Ni11  1  0.25000000  0.95833333  0.82500000  1.0
  Ni  Ni12  1  0.58333333  0.29166667  0.82500000  1.0
  Ni  Ni13  1  0.58333333  0.62500000  0.82500000  1.0
  Ni  Ni14  1  0.58333333  0.95833333  0.82500000  1.0
  Ni  Ni15  1  0.91666667  0.29166667  0.82500000  1.0
  Ni  Ni16  1  0.91666667  0.62500000  0.82500000  1.0
  Ni  Ni17  1  0.91666667  0.95833333  0.82500000  1.0
  Ni  Ni18  1  0.25000000  0.12500000  0.92500000  1.0
  Ni  Ni19  1  0.25000000  0.45833333  0.92500000  1.0
  Ni  Ni20  1  0.25000000  0.79166667  0.92500000  1.0
  Ni  Ni21  1  0.58333333  0.12500000  0.92500000  1.0
  Ni  Ni22  1  0.58333333  0.45833333  0.92500000  1.0
  Ni  Ni23  1  0.58333333  0.79166667  0.92500000  1.0
  Ni  Ni24  1  0.91666667  0.12500000  0.92500000  1.0
  Ni  Ni25  1  0.91666667  0.45833333  0.92500000  1.0
  Ni  Ni26  1  0.91666667  0.79166667  0.92500000  1.0
  Ni  Ni27  1  0.08333333  0.29166667  0.82500000  1.0
  Ni  Ni28  1  0.08333333  0.62500000  0.82500000  1.0
  Ni  Ni29  1  0.08333333  0.95833333  0.82500000  1.0
  Ni  Ni30  1  0.41666667  0.29166667  0.82500000  1.0
  Ni  Ni31  1  0.41666667  0.62500000  0.82500000  1.0
  Ni  Ni32  1  0.41666667  0.95833333  0.82500000  1.0
  Ni  Ni33  1  0.75000000  0.29166667  0.82500000  1.0
  Ni  Ni34  1  0.75000000  0.62500000  0.82500000  1.0
  Ni  Ni35  1  0.75000000  0.95833333  0.82500000  1.0
  Ni  Ni36  1  0.00000000  0.04166667  0.87500000  1.0
  Ni  Ni37  1  0.00000000  0.37500000  0.87500000  1.0
  Ni  Ni38  1  0.00000000  0.70833333  0.87500000  1.0
  Ni  Ni39  1  0.33333333  0.04166667  0.87500000  1.0
  Ni  Ni40  1  0.33333333  0.37500000  0.87500000  1.0
  Ni  Ni41  1  0.33333333  0.70833333  0.87500000  1.0
  Ni  Ni42  1  0.66666667  0.04166667  0.87500000  1.0
  Ni  Ni43  1  0.66666667  0.37500000  0.87500000  1.0
  Ni  Ni44  1  0.66666667  0.70833333  0.87500000  1.0
  Ni  Ni45  1  0.16666667  0.20833333  0.97500000  1.0
  Ni  Ni46  1  0.16666667  0.54166667  0.97500000  1.0
  Ni  Ni47  1  0.16666667  0.87500000  0.97500000  1.0
  Ni  Ni48  1  0.50000000  0.20833333  0.97500000  1.0
  Ni  Ni49  1  0.50000000  0.54166667  0.97500000  1.0
  Ni  Ni50  1  0.50000000  0.87500000  0.97500000  1.0
  Ni  Ni51  1  0.83333333  0.20833333  0.97500000  1.0
  Ni  Ni52  1  0.83333333  0.54166667  0.97500000  1.0
  Ni  Ni53  1  0.83333333  0.87500000  0.97500000  1.0
  Ni  Ni54  1  0.00000000  0.04166667  0.97500000  1.0
  Ni  Ni55  1  0.00000000  0.37500000  0.97500000  1.0
  Ni  Ni56  1  0.00000000  0.70833333  0.97500000  1.0
  Ni  Ni57  1  0.33333333  0.04166667  0.97500000  1.0
  Ni  Ni58  1  0.33333333  0.37500000  0.97500000  1.0
  Ni  Ni59  1  0.33333333  0.70833333  0.97500000  1.0
  Ni  Ni60  1  0.66666667  0.04166667  0.97500000  1.0
  Ni  Ni61  1  0.66666667  0.37500000  0.97500000  1.0
  Ni  Ni62  1  0.66666667  0.70833333  0.97500000  1.0
  Ni  Ni63  1  0.16666667  0.20833333  0.87500000  1.0
  Ni  Ni64  1  0.16666667  0.54166667  0.87500000  1.0
  Ni  Ni65  1  0.16666667  0.87500000  0.87500000  1.0
  Ni  Ni66  1  0.50000000  0.20833333  0.87500000  1.0
  Ni  Ni67  1  0.50000000  0.54166667  0.87500000  1.0
  Ni  Ni68  1  0.50000000  0.87500000  0.87500000  1.0
  Ni  Ni69  1  0.83333333  0.20833333  0.87500000  1.0
  Ni  Ni70  1  0.83333333  0.54166667  0.87500000  1.0
  Ni  Ni71  1  0.83333333  0.87500000  0.87500000  1.0
  Ni  Ni72  1  0.08333333  0.12500000  0.72500000  1.0
  Ni  Ni73  1  0.08333333  0.45833333  0.72500000  1.0
  Ni  Ni74  1  0.08333333  0.79166667  0.72500000  1.0
  Ni  Ni75  1  0.41666667  0.12500000  0.72500000  1.0
  Ni  Ni76  1  0.41666667  0.45833333  0.72500000  1.0
  Ni  Ni77  1  0.41666667  0.79166667  0.72500000  1.0
  Ni  Ni78  1  0.75000000  0.12500000  0.72500000  1.0
  Ni  Ni79  1  0.75000000  0.45833333  0.72500000  1.0
  Ni  Ni80  1  0.75000000  0.79166667  0.72500000  1.0
  Ni  Ni81  1  0.25000000  0.29166667  0.62500000  1.0
  Ni  Ni82  1  0.25000000  0.62500000  0.62500000  1.0
  Ni  Ni83  1  0.25000000  0.95833333  0.62500000  1.0
  Ni  Ni84  1  0.58333333  0.29166667  0.62500000  1.0
  Ni  Ni85  1  0.58333333  0.62500000  0.62500000  1.0
  Ni  Ni86  1  0.58333333  0.95833333  0.62500000  1.0
  Ni  Ni87  1  0.91666667  0.29166667  0.62500000  1.0
  Ni  Ni88  1  0.91666667  0.62500000  0.62500000  1.0
  Ni  Ni89  1  0.91666667  0.95833333  0.62500000  1.0
  Ni  Ni90  1  0.25000000  0.12500000  0.72500000  1.0
  Ni  Ni91  1  0.25000000  0.45833333  0.72500000  1.0
  Ni  Ni92  1  0.25000000  0.79166667  0.72500000  1.0
  Ni  Ni93  1  0.58333333  0.12500000  0.72500000  1.0
  Ni  Ni94  1  0.58333333  0.45833333  0.72500000  1.0
  Ni  Ni95  1  0.58333333  0.79166667  0.72500000  1.0
  Ni  Ni96  1  0.91666667  0.12500000  0.72500000  1.0
  Ni  Ni97  1  0.91666667  0.45833333  0.72500000  1.0
  Ni  Ni98  1  0.91666667  0.79166667  0.72500000  1.0
  Ni  Ni99  1  0.08333333  0.29166667  0.62500000  1.0
  Ni  Ni100  1  0.08333333  0.62500000  0.62500000  1.0
  Ni  Ni101  1  0.08333333  0.95833333  0.62500000  1.0
  Ni  Ni102  1  0.41666667  0.29166667  0.62500000  1.0
  Ni  Ni103  1  0.41666667  0.62500000  0.62500000  1.0
  Ni  Ni104  1  0.41666667  0.95833333  0.62500000  1.0
  Ni  Ni105  1  0.75000000  0.29166667  0.62500000  1.0
  Ni  Ni106  1  0.75000000  0.62500000  0.62500000  1.0
  Ni  Ni107  1  0.75000000  0.95833333  0.62500000  1.0
  Ni  Ni108  1  0.33333333  0.04166667  0.67500000  1.0
  Ni  Ni109  1  0.33333333  0.37500000  0.67500000  1.0
  Ni  Ni110  1  0.33333333  0.70833333  0.67500000  1.0
  Ni  Ni111  1  0.66666667  0.04166667  0.67500000  1.0
  Ni  Ni112  1  0.66666667  0.37500000  0.67500000  1.0
  Ni  Ni113  1  0.66666667  0.70833333  0.67500000  1.0
  Ni  Ni114  1  0.00000000  0.04166667  0.67500000  1.0
  Ni  Ni115  1  1.00000000  0.37500000  0.67500000  1.0
  Ni  Ni116  1  1.00000000  0.70833333  0.67500000  1.0
  Ni  Ni117  1  0.16666667  0.20833333  0.77500000  1.0
  Ni  Ni118  1  0.16666667  0.54166667  0.77500000  1.0
  Ni  Ni119  1  0.16666667  0.87500000  0.77500000  1.0
  Ni  Ni120  1  0.50000000  0.20833333  0.77500000  1.0
  Ni  Ni121  1  0.50000000  0.54166667  0.77500000  1.0
  Ni  Ni122  1  0.50000000  0.87500000  0.77500000  1.0
  Ni  Ni123  1  0.83333333  0.20833333  0.77500000  1.0
  Ni  Ni124  1  0.83333333  0.54166667  0.77500000  1.0
  Ni  Ni125  1  0.83333333  0.87500000  0.77500000  1.0
  Ni  Ni126  1  0.00000000  0.04166667  0.77500000  1.0
  Ni  Ni127  1  0.00000000  0.37500000  0.77500000  1.0
  Ni  Ni128  1  0.00000000  0.70833333  0.77500000  1.0
  Ni  Ni129  1  0.33333333  0.04166667  0.77500000  1.0
  Ni  Ni130  1  0.33333333  0.37500000  0.77500000  1.0
  Ni  Ni131  1  0.33333333  0.70833333  0.77500000  1.0
  Ni  Ni132  1  0.66666667  0.04166667  0.77500000  1.0
  Ni  Ni133  1  0.66666667  0.37500000  0.77500000  1.0
  Ni  Ni134  1  0.66666667  0.70833333  0.77500000  1.0
  Ni  Ni135  1  0.16666667  0.20833333  0.67500000  1.0
  Ni  Ni136  1  0.16666667  0.54166667  0.67500000  1.0
  Ni  Ni137  1  0.16666667  0.87500000  0.67500000  1.0
  Ni  Ni138  1  0.50000000  0.20833333  0.67500000  1.0
  Ni  Ni139  1  0.50000000  0.54166667  0.67500000  1.0
  Ni  Ni140  1  0.50000000  0.87500000  0.67500000  1.0
  Ni  Ni141  1  0.83333333  0.20833333  0.67500000  1.0
  Ni  Ni142  1  0.83333333  0.54166667  0.67500000  1.0
  Ni  Ni143  1  0.83333333  0.87500000  0.67500000  1.0
  Y  Y144  1  0.33333333  0.25000000  0.92500000  1.0
  Y  Y145  1  0.33333333  0.58333333  0.92500000  1.0
  Y  Y146  1  0.33333333  0.91666667  0.92500000  1.0
  Y  Y147  1  0.66666667  0.25000000  0.92500000  1.0
  Y  Y148  1  0.66666667  0.58333333  0.92500000  1.0
  Y  Y149  1  0.66666667  0.91666667  0.92500000  1.0
  Y  Y150  1  1.00000000  0.25000000  0.92500000  1.0
  Y  Y151  1  0.00000000  0.58333333  0.92500000  1.0
  Y  Y152  1  0.00000000  0.91666667  0.92500000  1.0
  Y  Y153  1  0.16666667  0.08333333  0.82500000  1.0
  Y  Y154  1  0.16666667  0.41666667  0.82500000  1.0
  Y  Y155  1  0.16666667  0.75000000  0.82500000  1.0
  Y  Y156  1  0.50000000  0.08333333  0.82500000  1.0
  Y  Y157  1  0.50000000  0.41666667  0.82500000  1.0
  Y  Y158  1  0.50000000  0.75000000  0.82500000  1.0
  Y  Y159  1  0.83333333  0.08333333  0.82500000  1.0
  Y  Y160  1  0.83333333  0.41666667  0.82500000  1.0
  Y  Y161  1  0.83333333  0.75000000  0.82500000  1.0
  Y  Y162  1  0.00000000  0.16666667  0.82500000  1.0
  Y  Y163  1  0.00000000  0.50000000  0.82500000  1.0
  Y  Y164  1  0.00000000  0.83333333  0.82500000  1.0
  Y  Y165  1  0.33333333  0.16666667  0.82500000  1.0
  Y  Y166  1  0.33333333  0.50000000  0.82500000  1.0
  Y  Y167  1  0.33333333  0.83333333  0.82500000  1.0
  Y  Y168  1  0.66666667  0.16666667  0.82500000  1.0
  Y  Y169  1  0.66666667  0.50000000  0.82500000  1.0
  Y  Y170  1  0.66666667  0.83333333  0.82500000  1.0
  Y  Y171  1  0.16666667  0.00000000  0.92500000  1.0
  Y  Y172  1  0.16666667  0.33333333  0.92500000  1.0
  Y  Y173  1  0.16666667  0.66666667  0.92500000  1.0
  Y  Y174  1  0.50000000  0.00000000  0.92500000  1.0
  Y  Y175  1  0.50000000  0.33333333  0.92500000  1.0
  Y  Y176  1  0.50000000  0.66666667  0.92500000  1.0
  Y  Y177  1  0.83333333  0.00000000  0.92500000  1.0
  Y  Y178  1  0.83333333  0.33333333  0.92500000  1.0
  Y  Y179  1  0.83333333  0.66666667  0.92500000  1.0
  Y  Y180  1  0.33333333  0.25000000  0.72500000  1.0
  Y  Y181  1  0.33333333  0.58333333  0.72500000  1.0
  Y  Y182  1  0.33333333  0.91666667  0.72500000  1.0
  Y  Y183  1  0.66666667  0.25000000  0.72500000  1.0
  Y  Y184  1  0.66666667  0.58333333  0.72500000  1.0
  Y  Y185  1  0.66666667  0.91666667  0.72500000  1.0
  Y  Y186  1  1.00000000  0.25000000  0.72500000  1.0
  Y  Y187  1  1.00000000  0.58333333  0.72500000  1.0
  Y  Y188  1  1.00000000  0.91666667  0.72500000  1.0
  Y  Y189  1  0.16666667  0.08333333  0.62500000  1.0
  Y  Y190  1  0.16666667  0.41666667  0.62500000  1.0
  Y  Y191  1  0.16666667  0.75000000  0.62500000  1.0
  Y  Y192  1  0.50000000  0.08333333  0.62500000  1.0
  Y  Y193  1  0.50000000  0.41666667  0.62500000  1.0
  Y  Y194  1  0.50000000  0.75000000  0.62500000  1.0
  Y  Y195  1  0.83333333  0.08333333  0.62500000  1.0
  Y  Y196  1  0.83333333  0.41666667  0.62500000  1.0
  Y  Y197  1  0.83333333  0.75000000  0.62500000  1.0
  Y  Y198  1  0.00000000  0.16666667  0.62500000  1.0
  Y  Y199  1  0.00000000  0.50000000  0.62500000  1.0
  Y  Y200  1  0.00000000  0.83333333  0.62500000  1.0
  Y  Y201  1  0.33333333  0.16666667  0.62500000  1.0
  Y  Y202  1  0.33333333  0.50000000  0.62500000  1.0
  Y  Y203  1  0.33333333  0.83333333  0.62500000  1.0
  Y  Y204  1  0.66666667  0.16666667  0.62500000  1.0
  Y  Y205  1  0.66666667  0.50000000  0.62500000  1.0
  Y  Y206  1  0.66666667  0.83333333  0.62500000  1.0
  Y  Y207  1  0.16666667  0.00000000  0.72500000  1.0
  Y  Y208  1  0.16666667  0.33333333  0.72500000  1.0
  Y  Y209  1  0.16666667  0.66666667  0.72500000  1.0
  Y  Y210  1  0.50000000  0.00000000  0.72500000  1.0
  Y  Y211  1  0.50000000  0.33333333  0.72500000  1.0
  Y  Y212  1  0.50000000  0.66666667  0.72500000  1.0
  Y  Y213  1  0.83333333  0.00000000  0.72500000  1.0
  Y  Y214  1  0.83333333  0.33333333  0.72500000  1.0
  Y  Y215  1  0.83333333  0.66666667  0.72500000  1.0
