# generated using pymatgen
data_YNi3
_symmetry_space_group_name_H-M   'P 1'
_cell_length_a   14.90398246
_cell_length_b   14.90398246
_cell_length_c   34.46611996
_cell_angle_alpha   106.75517548
_cell_angle_beta   106.75517548
_cell_angle_gamma   60.00000000
_symmetry_Int_Tables_number   1
_chemical_formula_structural   YNi3
_chemical_formula_sum   'Y54 Ni162'
_cell_volume   6252.08900741
_cell_formula_units_Z   54
loop_
 _symmetry_equiv_pos_site_id
 _symmetry_equiv_pos_as_xyz
  1  'x, y, z'
loop_
 _atom_site_type_symbol
 _atom_site_label
 _atom_site_symmetry_multiplicity
 _atom_site_fract_x
 _atom_site_fract_y
 _atom_site_fract_z
 _atom_site_occupancy
  Y  Y0  1  0.04622367  0.04622367  0.07338950  1.0
  Y  Y1  1  0.04622367  0.37955700  0.07338950  1.0
  Y  Y2  1  0.04622367  0.71289033  0.07338950  1.0
  Y  Y3  1  0.37955700  0.04622367  0.07338950  1.0
  Y  Y4  1  0.37955700  0.37955700  0.07338950  1.0
  Y  Y5  1  0.37955700  0.71289033  0.07338950  1.0
  Y  Y6  1  0.71289033  0.04622367  0.07338950  1.0
  Y  Y7  1  0.71289033  0.37955700  0.07338950  1.0
  Y  Y8  1  0.71289033  0.71289033  0.07338950  1.0
  Y  Y9  1  0.28710967  0.28710967  0.11538300  1.0
  Y  Y10  1  0.28710967  0.62044300  0.11538300  1.0
  Y  Y11  1  0.28710967  0.95377633  0.11538300  1.0
  Y  Y12  1  0.62044300  0.28710967  0.11538300  1.0
  Y  Y13  1  0.62044300  0.62044300  0.11538300  1.0
  Y  Y14  1  0.62044300  0.95377633  0.11538300  1.0
  Y  Y15  1  0.95377633  0.28710967  0.11538300  1.0
  Y  Y16  1  0.95377633  0.62044300  0.11538300  1.0
  Y  Y17  1  0.95377633  0.95377633  0.11538300  1.0
  Y  Y18  1  0.00000000  0.00000000  0.21938625  1.0
  Y  Y19  1  0.00000000  0.33333333  0.21938625  1.0
  Y  Y20  1  0.00000000  0.66666667  0.21938625  1.0
  Y  Y21  1  0.33333333  0.00000000  0.21938625  1.0
  Y  Y22  1  0.33333333  0.33333333  0.21938625  1.0
  Y  Y23  1  0.33333333  0.66666667  0.21938625  1.0
  Y  Y24  1  0.66666667  0.00000000  0.21938625  1.0
  Y  Y25  1  0.66666667  0.33333333  0.21938625  1.0
  Y  Y26  1  0.66666667  0.66666667  0.21938625  1.0
  Ni  Ni27  1  0.02698167  0.19403933  0.03068150  1.0
  Ni  Ni28  1  0.02698167  0.52737267  0.03068150  1.0
  Ni  Ni29  1  0.02698167  0.86070600  0.03068150  1.0
  Ni  Ni30  1  0.36031500  0.19403933  0.03068150  1.0
  Ni  Ni31  1  0.36031500  0.52737267  0.03068150  1.0
  Ni  Ni32  1  0.36031500  0.86070600  0.03068150  1.0
  Ni  Ni33  1  0.69364833  0.19403933  0.03068150  1.0
  Ni  Ni34  1  0.69364833  0.52737267  0.03068150  1.0
  Ni  Ni35  1  0.69364833  0.86070600  0.03068150  1.0
  Ni  Ni36  1  0.19403933  0.02698167  0.03068150  1.0
  Ni  Ni37  1  0.19403933  0.36031500  0.03068150  1.0
  Ni  Ni38  1  0.19403933  0.69364833  0.03068150  1.0
  Ni  Ni39  1  0.52737267  0.02698167  0.03068150  1.0
  Ni  Ni40  1  0.52737267  0.36031500  0.03068150  1.0
  Ni  Ni41  1  0.52737267  0.69364833  0.03068150  1.0
  Ni  Ni42  1  0.86070600  0.02698167  0.03068150  1.0
  Ni  Ni43  1  0.86070600  0.36031500  0.03068150  1.0
  Ni  Ni44  1  0.86070600  0.69364833  0.03068150  1.0
  Ni  Ni45  1  0.16666667  0.16666667  0.09438625  1.0
  Ni  Ni46  1  0.16666667  0.50000000  0.09438625  1.0
  Ni  Ni47  1  0.16666667  0.83333333  0.09438625  1.0
  Ni  Ni48  1  0.50000000  0.16666667  0.09438625  1.0
  Ni  Ni49  1  0.50000000  0.50000000  0.09438625  1.0
  Ni  Ni50  1  0.50000000  0.83333333  0.09438625  1.0
  Ni  Ni51  1  0.83333333  0.16666667  0.09438625  1.0
  Ni  Ni52  1  0.83333333  0.50000000  0.09438625  1.0
  Ni  Ni53  1  0.83333333  0.83333333  0.09438625  1.0
  Ni  Ni54  1  0.13929400  0.13929400  0.15809100  1.0
  Ni  Ni55  1  0.13929400  0.47262733  0.15809100  1.0
  Ni  Ni56  1  0.13929400  0.80596067  0.15809100  1.0
  Ni  Ni57  1  0.47262733  0.13929400  0.15809100  1.0
  Ni  Ni58  1  0.47262733  0.47262733  0.15809100  1.0
  Ni  Ni59  1  0.47262733  0.80596067  0.15809100  1.0
  Ni  Ni60  1  0.80596067  0.13929400  0.15809100  1.0
  Ni  Ni61  1  0.80596067  0.47262733  0.15809100  1.0
  Ni  Ni62  1  0.80596067  0.80596067  0.15809100  1.0
  Ni  Ni63  1  0.30635167  0.13929400  0.15809100  1.0
  Ni  Ni64  1  0.30635167  0.47262733  0.15809100  1.0
  Ni  Ni65  1  0.30635167  0.80596067  0.15809100  1.0
  Ni  Ni66  1  0.63968500  0.13929400  0.15809100  1.0
  Ni  Ni67  1  0.63968500  0.47262733  0.15809100  1.0
  Ni  Ni68  1  0.63968500  0.80596067  0.15809100  1.0
  Ni  Ni69  1  0.97301833  0.13929400  0.15809100  1.0
  Ni  Ni70  1  0.97301833  0.47262733  0.15809100  1.0
  Ni  Ni71  1  0.97301833  0.80596067  0.15809100  1.0
  Ni  Ni72  1  0.22225233  0.22225233  0.21945400  1.0
  Ni  Ni73  1  0.22225233  0.55558567  0.21945400  1.0
  Ni  Ni74  1  0.22225233  0.88891900  0.21945400  1.0
  Ni  Ni75  1  0.55558567  0.22225233  0.21945400  1.0
  Ni  Ni76  1  0.55558567  0.55558567  0.21945400  1.0
  Ni  Ni77  1  0.55558567  0.88891900  0.21945400  1.0
  Ni  Ni78  1  0.88891900  0.22225233  0.21945400  1.0
  Ni  Ni79  1  0.88891900  0.55558567  0.21945400  1.0
  Ni  Ni80  1  0.88891900  0.88891900  0.21945400  1.0
  Ni  Ni81  1  0.19403933  0.19403933  0.03068150  1.0
  Ni  Ni82  1  0.19403933  0.52737267  0.03068150  1.0
  Ni  Ni83  1  0.19403933  0.86070600  0.03068150  1.0
  Ni  Ni84  1  0.52737267  0.19403933  0.03068150  1.0
  Ni  Ni85  1  0.52737267  0.52737267  0.03068150  1.0
  Ni  Ni86  1  0.52737267  0.86070600  0.03068150  1.0
  Ni  Ni87  1  0.86070600  0.19403933  0.03068150  1.0
  Ni  Ni88  1  0.86070600  0.52737267  0.03068150  1.0
  Ni  Ni89  1  0.86070600  0.86070600  0.03068150  1.0
  Ni  Ni90  1  0.11108100  0.11108100  0.21931850  1.0
  Ni  Ni91  1  0.11108100  0.44441433  0.21931850  1.0
  Ni  Ni92  1  0.11108100  0.77774767  0.21931850  1.0
  Ni  Ni93  1  0.44441433  0.11108100  0.21931850  1.0
  Ni  Ni94  1  0.44441433  0.44441433  0.21931850  1.0
  Ni  Ni95  1  0.44441433  0.77774767  0.21931850  1.0
  Ni  Ni96  1  0.77774767  0.11108100  0.21931850  1.0
  Ni  Ni97  1  0.77774767  0.44441433  0.21931850  1.0
  Ni  Ni98  1  0.77774767  0.77774767  0.21931850  1.0
  Ni  Ni99  1  0.13929400  0.30635167  0.15809100  1.0
  Ni  Ni100  1  0.13929400  0.63968500  0.15809100  1.0
  Ni  Ni101  1  0.13929400  0.97301833  0.15809100  1.0
  Ni  Ni102  1  0.47262733  0.30635167  0.15809100  1.0
  Ni  Ni103  1  0.47262733  0.63968500  0.15809100  1.0
  Ni  Ni104  1  0.47262733  0.97301833  0.15809100  1.0
  Ni  Ni105  1  0.80596067  0.30635167  0.15809100  1.0
  Ni  Ni106  1  0.80596067  0.63968500  0.15809100  1.0
  Ni  Ni107  1  0.80596067  0.97301833  0.15809100  1.0
  Y  Y108  1  0.04622367  0.04622367  0.32338950  1.0
  Y  Y109  1  0.04622367  0.37955700  0.32338950  1.0
  Y  Y110  1  0.04622367  0.71289033  0.32338950  1.0
  Y  Y111  1  0.37955700  0.04622367  0.32338950  1.0
  Y  Y112  1  0.37955700  0.37955700  0.32338950  1.0
  Y  Y113  1  0.37955700  0.71289033  0.32338950  1.0
  Y  Y114  1  0.71289033  0.04622367  0.32338950  1.0
  Y  Y115  1  0.71289033  0.37955700  0.32338950  1.0
  Y  Y116  1  0.71289033  0.71289033  0.32338950  1.0
  Y  Y117  1  0.28710967  0.28710967  0.36538300  1.0
  Y  Y118  1  0.28710967  0.62044300  0.36538300  1.0
  Y  Y119  1  0.28710967  0.95377633  0.36538300  1.0
  Y  Y120  1  0.62044300  0.28710967  0.36538300  1.0
  Y  Y121  1  0.62044300  0.62044300  0.36538300  1.0
  Y  Y122  1  0.62044300  0.95377633  0.36538300  1.0
  Y  Y123  1  0.95377633  0.28710967  0.36538300  1.0
  Y  Y124  1  0.95377633  0.62044300  0.36538300  1.0
  Y  Y125  1  0.95377633  0.95377633  0.36538300  1.0
  Y  Y126  1  0.00000000  0.00000000  0.46938625  1.0
  Y  Y127  1  0.00000000  0.33333333  0.46938625  1.0
  Y  Y128  1  0.00000000  0.66666667  0.46938625  1.0
  Y  Y129  1  0.33333333  0.00000000  0.46938625  1.0
  Y  Y130  1  0.33333333  0.33333333  0.46938625  1.0
  Y  Y131  1  0.33333333  0.66666667  0.46938625  1.0
  Y  Y132  1  0.66666667  0.00000000  0.46938625  1.0
  Y  Y133  1  0.66666667  0.33333333  0.46938625  1.0
  Y  Y134  1  0.66666667  0.66666667  0.46938625  1.0
  Ni  Ni135  1  0.02698167  0.19403933  0.28068150  1.0
  Ni  Ni136  1  0.02698167  0.52737267  0.28068150  1.0
  Ni  Ni137  1  0.02698167  0.86070600  0.28068150  1.0
  Ni  Ni138  1  0.36031500  0.19403933  0.28068150  1.0
  Ni  Ni139  1  0.36031500  0.52737267  0.28068150  1.0
  Ni  Ni140  1  0.36031500  0.86070600  0.28068150  1.0
  Ni  Ni141  1  0.69364833  0.19403933  0.28068150  1.0
  Ni  Ni142  1  0.69364833  0.52737267  0.28068150  1.0
  Ni  Ni143  1  0.69364833  0.86070600  0.28068150  1.0
  Ni  Ni144  1  0.19403933  0.02698167  0.28068150  1.0
  Ni  Ni145  1  0.19403933  0.36031500  0.28068150  1.0
  Ni  Ni146  1  0.19403933  0.69364833  0.28068150  1.0
  Ni  Ni147  1  0.52737267  0.02698167  0.28068150  1.0
  Ni  Ni148  1  0.52737267  0.36031500  0.28068150  1.0
  Ni  Ni149  1  0.52737267  0.69364833  0.28068150  1.0
  Ni  Ni150  1  0.86070600  0.02698167  0.28068150  1.0
  Ni  Ni151  1  0.86070600  0.36031500  0.28068150  1.0
  Ni  Ni152  1  0.86070600  0.69364833  0.28068150  1.0
  Ni  Ni153  1  0.16666667  0.16666667  0.34438625  1.0
  Ni  Ni154  1  0.16666667  0.50000000  0.34438625  1.0
  Ni  Ni155  1  0.16666667  0.83333333  0.34438625  1.0
  Ni  Ni156  1  0.50000000  0.16666667  0.34438625  1.0
  Ni  Ni157  1  0.50000000  0.50000000  0.34438625  1.0
  Ni  Ni158  1  0.50000000  0.83333333  0.34438625  1.0
  Ni  Ni159  1  0.83333333  0.16666667  0.34438625  1.0
  Ni  Ni160  1  0.83333333  0.50000000  0.34438625  1.0
  Ni  Ni161  1  0.83333333  0.83333333  0.34438625  1.0
  Ni  Ni162  1  0.13929400  0.13929400  0.40809100  1.0
  Ni  Ni163  1  0.13929400  0.47262733  0.40809100  1.0
  Ni  Ni164  1  0.13929400  0.80596067  0.40809100  1.0
  Ni  Ni165  1  0.47262733  0.13929400  0.40809100  1.0
  Ni  Ni166  1  0.47262733  0.47262733  0.40809100  1.0
  Ni  Ni167  1  0.47262733  0.80596067  0.40809100  1.0
  Ni  Ni168  1  0.80596067  0.13929400  0.40809100  1.0
  Ni  Ni169  1  0.80596067  0.47262733  0.40809100  1.0
  Ni  Ni170  1  0.80596067  0.80596067  0.40809100  1.0
  Ni  Ni171  1  0.30635167  0.13929400  0.40809100  1.0
  Ni  Ni172  1  0.30635167  0.47262733  0.40809100  1.0
  Ni  Ni173  1  0.30635167  0.80596067  0.40809100  1.0
  Ni  Ni174  1  0.63968500  0.13929400  0.40809100  1.0
  Ni  Ni175  1  0.63968500  0.47262733  0.40809100  1.0
  Ni  Ni176  1  0.63968500  0.80596067  0.40809100  1.0
  Ni  Ni177  1  0.97301833  0.13929400  0.40809100  1.0
  Ni  Ni178  1  0.97301833  0.47262733  0.40809100  1.0
  Ni  Ni179  1  0.97301833  0.80596067  0.40809100  1.0
  Ni  Ni180  1  0.22225233  0.22225233  0.46945400  1.0
  Ni  Ni181  1  0.22225233  0.55558567  0.46945400  1.0
  Ni  Ni182  1  0.22225233  0.88891900  0.46945400  1.0
  Ni  Ni183  1  0.55558567  0.22225233  0.46945400  1.0
  Ni  Ni184  1  0.55558567  0.55558567  0.46945400  1.0
  Ni  Ni185  1  0.55558567  0.88891900  0.46945400  1.0
  Ni  Ni186  1  0.88891900  0.22225233  0.46945400  1.0
  Ni  Ni187  1  0.88891900  0.55558567  0.46945400  1.0
  Ni  Ni188  1  0.88891900  0.88891900  0.46945400  1.0
  Ni  Ni189  1  0.19403933  0.19403933  0.28068150  1.0
  Ni  Ni190  1  0.19403933  0.52737267  0.28068150  1.0
  Ni  Ni191  1  0.19403933  0.86070600  0.28068150  1.0
  Ni  Ni192  1  0.52737267  0.19403933  0.28068150  1.0
  Ni  Ni193  1  0.52737267  0.52737267  0.28068150  1.0
  Ni  Ni194  1  0.52737267  0.86070600  0.28068150  1.0
  Ni  Ni195  1  0.86070600  0.19403933  0.28068150  1.0
  Ni  Ni196  1  0.86070600  0.52737267  0.28068150  1.0
  Ni  Ni197  1  0.86070600  0.86070600  0.28068150  1.0
  Ni  Ni198  1  0.11108100  0.11108100  0.46931850  1.0
  Ni  Ni199  1  0.11108100  0.44441433  0.46931850  1.0
  Ni  Ni200  1  0.11108100  0.77774767  0.46931850  1.0
  Ni  Ni201  1  0.44441433  0.11108100  0.46931850  1.0
  Ni  Ni202  1  0.44441433  0.44441433  0.46931850  1.0
  Ni  Ni203  1  0.44441433  0.77774767  0.46931850  1.0
  Ni  Ni204  1  0.77774767  0.11108100  0.46931850  1.0
  Ni  Ni205  1  0.77774767  0.44441433  0.46931850  1.0
  Ni  Ni206  1  0.77774767  0.77774767  0.46931850  1.0
  Ni  Ni207  1  0.13929400  0.30635167  0.40809100  1.0
  Ni  Ni208  1  0.13929400  0.63968500  0.40809100  1.0
  Ni  Ni209  1  0.13929400  0.97301833  0.40809100  1.0
  Ni  Ni210  1  0.47262733  0.30635167  0.40809100  1.0
  Ni  Ni211  1  0.47262733  0.63968500  0.40809100  1.0
  Ni  Ni212  1  0.47262733  0.97301833  0.40809100  1.0
  Ni  Ni213  1  0.80596067  0.30635167  0.40809100  1.0
  Ni  Ni214  1  0.80596067  0.63968500  0.40809100  1.0
  Ni  Ni215  1  0.80596067  0.97301833  0.40809100  1.0
