# generated using pymatgen
data_YNi3
_symmetry_space_group_name_H-M   'P 1'
_cell_length_a   14.90398246
_cell_length_b   29.83839799
_cell_length_c   35.48994262
_cell_angle_alpha   97.97248989
_cell_angle_beta   90.00000000
_cell_angle_gamma   90.00000000
_symmetry_Int_Tables_number   1
_chemical_formula_structural   YNi3
_chemical_formula_sum   'Y108 Ni324'
_cell_volume   15630.22251852
_cell_formula_units_Z   108
loop_
 _symmetry_equiv_pos_site_id
 _symmetry_equiv_pos_as_xyz
  1  'x, y, z'
loop_
 _atom_site_type_symbol
 _atom_site_label
 _atom_site_symmetry_multiplicity
 _atom_site_fract_x
 _atom_site_fract_y
 _atom_site_fract_z
 _atom_site_occupancy
  Ni  Ni0  1  0.24980450  0.04872798  0.82590515  1.0
  Ni  Ni1  1  0.24980450  0.38206132  0.82590515  1.0
  Ni  Ni2  1  0.24980450  0.71539465  0.82590515  1.0
  Ni  Ni3  1  0.58313783  0.04872798  0.82590515  1.0
  Ni  Ni4  1  0.58313783  0.38206132  0.82590515  1.0
  Ni  Ni5  1  0.58313783  0.71539465  0.82590515  1.0
  Ni  Ni6  1  0.91647117  0.04872798  0.82590515  1.0
  Ni  Ni7  1  0.91647117  0.38206132  0.82590515  1.0
  Ni  Ni8  1  0.91647117  0.71539465  0.82590515  1.0
  Ni  Ni9  1  0.08313783  0.31539465  0.92590515  1.0
  Ni  Ni10  1  0.08313783  0.64872798  0.92590515  1.0
  Ni  Ni11  1  0.08313783  0.98206132  0.92590515  1.0
  Ni  Ni12  1  0.41647117  0.31539465  0.92590515  1.0
  Ni  Ni13  1  0.41647117  0.64872798  0.92590515  1.0
  Ni  Ni14  1  0.41647117  0.98206132  0.92590515  1.0
  Ni  Ni15  1  0.74980450  0.31539465  0.92590515  1.0
  Ni  Ni16  1  0.74980450  0.64872798  0.92590515  1.0
  Ni  Ni17  1  0.74980450  0.98206132  0.92590515  1.0
  Ni  Ni18  1  0.08352883  0.04872798  0.82590515  1.0
  Ni  Ni19  1  0.08352883  0.38206132  0.82590515  1.0
  Ni  Ni20  1  0.08352883  0.71539465  0.82590515  1.0
  Ni  Ni21  1  0.41686217  0.04872798  0.82590515  1.0
  Ni  Ni22  1  0.41686217  0.38206132  0.82590515  1.0
  Ni  Ni23  1  0.41686217  0.71539465  0.82590515  1.0
  Ni  Ni24  1  0.75019550  0.04872798  0.82590515  1.0
  Ni  Ni25  1  0.75019550  0.38206132  0.82590515  1.0
  Ni  Ni26  1  0.75019550  0.71539465  0.82590515  1.0
  Ni  Ni27  1  0.25019550  0.31539465  0.92590515  1.0
  Ni  Ni28  1  0.25019550  0.64872798  0.92590515  1.0
  Ni  Ni29  1  0.25019550  0.98206132  0.92590515  1.0
  Ni  Ni30  1  0.58352883  0.31539465  0.92590515  1.0
  Ni  Ni31  1  0.58352883  0.64872798  0.92590515  1.0
  Ni  Ni32  1  0.58352883  0.98206132  0.92590515  1.0
  Ni  Ni33  1  0.91686217  0.31539465  0.92590515  1.0
  Ni  Ni34  1  0.91686217  0.64872798  0.92590515  1.0
  Ni  Ni35  1  0.91686217  0.98206132  0.92590515  1.0
  Ni  Ni36  1  0.33333333  0.30863505  0.80863505  1.0
  Ni  Ni37  1  0.33333333  0.64196838  0.80863505  1.0
  Ni  Ni38  1  0.33333333  0.97530172  0.80863505  1.0
  Ni  Ni39  1  0.66666667  0.30863505  0.80863505  1.0
  Ni  Ni40  1  0.66666667  0.64196838  0.80863505  1.0
  Ni  Ni41  1  0.66666667  0.97530172  0.80863505  1.0
  Ni  Ni42  1  1.00000000  0.30863505  0.80863505  1.0
  Ni  Ni43  1  0.00000000  0.64196838  0.80863505  1.0
  Ni  Ni44  1  1.00000000  0.97530172  0.80863505  1.0
  Ni  Ni45  1  0.16666667  0.24196838  0.90863505  1.0
  Ni  Ni46  1  0.16666667  0.57530172  0.90863505  1.0
  Ni  Ni47  1  0.16666667  0.90863505  0.90863505  1.0
  Ni  Ni48  1  0.50000000  0.24196838  0.90863505  1.0
  Ni  Ni49  1  0.50000000  0.57530172  0.90863505  1.0
  Ni  Ni50  1  0.50000000  0.90863505  0.90863505  1.0
  Ni  Ni51  1  0.83333333  0.24196838  0.90863505  1.0
  Ni  Ni52  1  0.83333333  0.57530172  0.90863505  1.0
  Ni  Ni53  1  0.83333333  0.90863505  0.90863505  1.0
  Ni  Ni54  1  0.33333333  0.13528698  0.94124765  1.0
  Ni  Ni55  1  0.33333333  0.46862032  0.94124765  1.0
  Ni  Ni56  1  0.33333333  0.80195365  0.94124765  1.0
  Ni  Ni57  1  0.66666667  0.13528698  0.94124765  1.0
  Ni  Ni58  1  0.66666667  0.46862032  0.94124765  1.0
  Ni  Ni59  1  0.66666667  0.80195365  0.94124765  1.0
  Ni  Ni60  1  0.00000000  0.13528698  0.94124765  1.0
  Ni  Ni61  1  0.00000000  0.46862032  0.94124765  1.0
  Ni  Ni62  1  0.00000000  0.80195365  0.94124765  1.0
  Ni  Ni63  1  0.16666667  0.20195365  0.84124765  1.0
  Ni  Ni64  1  0.16666667  0.53528698  0.84124765  1.0
  Ni  Ni65  1  0.16666667  0.86862032  0.84124765  1.0
  Ni  Ni66  1  0.50000000  0.20195365  0.84124765  1.0
  Ni  Ni67  1  0.50000000  0.53528698  0.84124765  1.0
  Ni  Ni68  1  0.50000000  0.86862032  0.84124765  1.0
  Ni  Ni69  1  0.83333333  0.20195365  0.84124765  1.0
  Ni  Ni70  1  0.83333333  0.53528698  0.84124765  1.0
  Ni  Ni71  1  0.83333333  0.86862032  0.84124765  1.0
  Ni  Ni72  1  0.08352883  0.10187545  0.99136495  1.0
  Ni  Ni73  1  0.08352883  0.43520878  0.99136495  1.0
  Ni  Ni74  1  0.08352883  0.76854212  0.99136495  1.0
  Ni  Ni75  1  0.41686217  0.10187545  0.99136495  1.0
  Ni  Ni76  1  0.41686217  0.43520878  0.99136495  1.0
  Ni  Ni77  1  0.41686217  0.76854212  0.99136495  1.0
  Ni  Ni78  1  0.75019550  0.10187545  0.99136495  1.0
  Ni  Ni79  1  0.75019550  0.43520878  0.99136495  1.0
  Ni  Ni80  1  0.75019550  0.76854212  0.99136495  1.0
  Ni  Ni81  1  0.25019550  0.16854212  0.89136495  1.0
  Ni  Ni82  1  0.25019550  0.50187545  0.89136495  1.0
  Ni  Ni83  1  0.25019550  0.83520878  0.89136495  1.0
  Ni  Ni84  1  0.58352883  0.16854212  0.89136495  1.0
  Ni  Ni85  1  0.58352883  0.50187545  0.89136495  1.0
  Ni  Ni86  1  0.58352883  0.83520878  0.89136495  1.0
  Ni  Ni87  1  0.91686217  0.16854212  0.89136495  1.0
  Ni  Ni88  1  0.91686217  0.50187545  0.89136495  1.0
  Ni  Ni89  1  0.91686217  0.83520878  0.89136495  1.0
  Ni  Ni90  1  0.33333333  0.05301325  0.94193225  1.0
  Ni  Ni91  1  0.33333333  0.38634658  0.94193225  1.0
  Ni  Ni92  1  0.33333333  0.71967992  0.94193225  1.0
  Ni  Ni93  1  0.66666667  0.05301325  0.94193225  1.0
  Ni  Ni94  1  0.66666667  0.38634658  0.94193225  1.0
  Ni  Ni95  1  0.66666667  0.71967992  0.94193225  1.0
  Ni  Ni96  1  0.00000000  0.05301325  0.94193225  1.0
  Ni  Ni97  1  0.00000000  0.38634658  0.94193225  1.0
  Ni  Ni98  1  0.00000000  0.71967992  0.94193225  1.0
  Ni  Ni99  1  0.16666667  0.11967992  0.84193225  1.0
  Ni  Ni100  1  0.16666667  0.45301325  0.84193225  1.0
  Ni  Ni101  1  0.16666667  0.78634658  0.84193225  1.0
  Ni  Ni102  1  0.50000000  0.11967992  0.84193225  1.0
  Ni  Ni103  1  0.50000000  0.45301325  0.84193225  1.0
  Ni  Ni104  1  0.50000000  0.78634658  0.84193225  1.0
  Ni  Ni105  1  0.83333333  0.11967992  0.84193225  1.0
  Ni  Ni106  1  0.83333333  0.45301325  0.84193225  1.0
  Ni  Ni107  1  0.83333333  0.78634658  0.84193225  1.0
  Ni  Ni108  1  0.00000000  0.01531645  0.87602245  1.0
  Ni  Ni109  1  0.00000000  0.34864978  0.87602245  1.0
  Ni  Ni110  1  0.00000000  0.68198312  0.87602245  1.0
  Ni  Ni111  1  0.33333333  0.01531645  0.87602245  1.0
  Ni  Ni112  1  0.33333333  0.34864978  0.87602245  1.0
  Ni  Ni113  1  0.33333333  0.68198312  0.87602245  1.0
  Ni  Ni114  1  0.66666667  0.01531645  0.87602245  1.0
  Ni  Ni115  1  0.66666667  0.34864978  0.87602245  1.0
  Ni  Ni116  1  0.66666667  0.68198312  0.87602245  1.0
  Ni  Ni117  1  0.16666667  0.28198312  0.97602245  1.0
  Ni  Ni118  1  0.16666667  0.61531645  0.97602245  1.0
  Ni  Ni119  1  0.16666667  0.94864978  0.97602245  1.0
  Ni  Ni120  1  0.50000000  0.28198312  0.97602245  1.0
  Ni  Ni121  1  0.50000000  0.61531645  0.97602245  1.0
  Ni  Ni122  1  0.50000000  0.94864978  0.97602245  1.0
  Ni  Ni123  1  0.83333333  0.28198312  0.97602245  1.0
  Ni  Ni124  1  0.83333333  0.61531645  0.97602245  1.0
  Ni  Ni125  1  0.83333333  0.94864978  0.97602245  1.0
  Ni  Ni126  1  0.33333333  0.09759018  0.87533785  1.0
  Ni  Ni127  1  0.33333333  0.43092352  0.87533785  1.0
  Ni  Ni128  1  0.33333333  0.76425685  0.87533785  1.0
  Ni  Ni129  1  0.66666667  0.09759018  0.87533785  1.0
  Ni  Ni130  1  0.66666667  0.43092352  0.87533785  1.0
  Ni  Ni131  1  0.66666667  0.76425685  0.87533785  1.0
  Ni  Ni132  1  1.00000000  0.09759018  0.87533785  1.0
  Ni  Ni133  1  1.00000000  0.43092352  0.87533785  1.0
  Ni  Ni134  1  0.00000000  0.76425685  0.87533785  1.0
  Ni  Ni135  1  0.16666667  0.03092352  0.97533785  1.0
  Ni  Ni136  1  0.16666667  0.36425685  0.97533785  1.0
  Ni  Ni137  1  0.16666667  0.69759018  0.97533785  1.0
  Ni  Ni138  1  0.50000000  0.03092352  0.97533785  1.0
  Ni  Ni139  1  0.50000000  0.36425685  0.97533785  1.0
  Ni  Ni140  1  0.50000000  0.69759018  0.97533785  1.0
  Ni  Ni141  1  0.83333333  0.03092352  0.97533785  1.0
  Ni  Ni142  1  0.83333333  0.36425685  0.97533785  1.0
  Ni  Ni143  1  0.83333333  0.69759018  0.97533785  1.0
  Ni  Ni144  1  0.24980450  0.10187545  0.99136495  1.0
  Ni  Ni145  1  0.24980450  0.43520878  0.99136495  1.0
  Ni  Ni146  1  0.24980450  0.76854212  0.99136495  1.0
  Ni  Ni147  1  0.58313783  0.10187545  0.99136495  1.0
  Ni  Ni148  1  0.58313783  0.43520878  0.99136495  1.0
  Ni  Ni149  1  0.58313783  0.76854212  0.99136495  1.0
  Ni  Ni150  1  0.91647117  0.10187545  0.99136495  1.0
  Ni  Ni151  1  0.91647117  0.43520878  0.99136495  1.0
  Ni  Ni152  1  0.91647117  0.76854212  0.99136495  1.0
  Ni  Ni153  1  0.08313783  0.16854212  0.89136495  1.0
  Ni  Ni154  1  0.08313783  0.50187545  0.89136495  1.0
  Ni  Ni155  1  0.08313783  0.83520878  0.89136495  1.0
  Ni  Ni156  1  0.41647117  0.16854212  0.89136495  1.0
  Ni  Ni157  1  0.41647117  0.50187545  0.89136495  1.0
  Ni  Ni158  1  0.41647117  0.83520878  0.89136495  1.0
  Ni  Ni159  1  0.74980450  0.16854212  0.89136495  1.0
  Ni  Ni160  1  0.74980450  0.50187545  0.89136495  1.0
  Ni  Ni161  1  0.74980450  0.83520878  0.89136495  1.0
  Ni  Ni162  1  0.24980450  0.18206132  0.62590515  1.0
  Ni  Ni163  1  0.24980450  0.51539465  0.62590515  1.0
  Ni  Ni164  1  0.24980450  0.84872798  0.62590515  1.0
  Ni  Ni165  1  0.58313783  0.18206132  0.62590515  1.0
  Ni  Ni166  1  0.58313783  0.51539465  0.62590515  1.0
  Ni  Ni167  1  0.58313783  0.84872798  0.62590515  1.0
  Ni  Ni168  1  0.91647117  0.18206132  0.62590515  1.0
  Ni  Ni169  1  0.91647117  0.51539465  0.62590515  1.0
  Ni  Ni170  1  0.91647117  0.84872798  0.62590515  1.0
  Ni  Ni171  1  0.08313783  0.11539465  0.72590515  1.0
  Ni  Ni172  1  0.08313783  0.44872798  0.72590515  1.0
  Ni  Ni173  1  0.08313783  0.78206132  0.72590515  1.0
  Ni  Ni174  1  0.41647117  0.11539465  0.72590515  1.0
  Ni  Ni175  1  0.41647117  0.44872798  0.72590515  1.0
  Ni  Ni176  1  0.41647117  0.78206132  0.72590515  1.0
  Ni  Ni177  1  0.74980450  0.11539465  0.72590515  1.0
  Ni  Ni178  1  0.74980450  0.44872798  0.72590515  1.0
  Ni  Ni179  1  0.74980450  0.78206132  0.72590515  1.0
  Ni  Ni180  1  0.08352883  0.18206132  0.62590515  1.0
  Ni  Ni181  1  0.08352883  0.51539465  0.62590515  1.0
  Ni  Ni182  1  0.08352883  0.84872798  0.62590515  1.0
  Ni  Ni183  1  0.41686217  0.18206132  0.62590515  1.0
  Ni  Ni184  1  0.41686217  0.51539465  0.62590515  1.0
  Ni  Ni185  1  0.41686217  0.84872798  0.62590515  1.0
  Ni  Ni186  1  0.75019550  0.18206132  0.62590515  1.0
  Ni  Ni187  1  0.75019550  0.51539465  0.62590515  1.0
  Ni  Ni188  1  0.75019550  0.84872798  0.62590515  1.0
  Ni  Ni189  1  0.25019550  0.11539465  0.72590515  1.0
  Ni  Ni190  1  0.25019550  0.44872798  0.72590515  1.0
  Ni  Ni191  1  0.25019550  0.78206132  0.72590515  1.0
  Ni  Ni192  1  0.58352883  0.11539465  0.72590515  1.0
  Ni  Ni193  1  0.58352883  0.44872798  0.72590515  1.0
  Ni  Ni194  1  0.58352883  0.78206132  0.72590515  1.0
  Ni  Ni195  1  0.91686217  0.11539465  0.72590515  1.0
  Ni  Ni196  1  0.91686217  0.44872798  0.72590515  1.0
  Ni  Ni197  1  0.91686217  0.78206132  0.72590515  1.0
  Ni  Ni198  1  0.33333333  0.10863505  0.60863505  1.0
  Ni  Ni199  1  0.33333333  0.44196838  0.60863505  1.0
  Ni  Ni200  1  0.33333333  0.77530172  0.60863505  1.0
  Ni  Ni201  1  0.66666667  0.10863505  0.60863505  1.0
  Ni  Ni202  1  0.66666667  0.44196838  0.60863505  1.0
  Ni  Ni203  1  0.66666667  0.77530172  0.60863505  1.0
  Ni  Ni204  1  1.00000000  0.10863505  0.60863505  1.0
  Ni  Ni205  1  1.00000000  0.44196838  0.60863505  1.0
  Ni  Ni206  1  1.00000000  0.77530172  0.60863505  1.0
  Ni  Ni207  1  0.16666667  0.04196838  0.70863505  1.0
  Ni  Ni208  1  0.16666667  0.37530172  0.70863505  1.0
  Ni  Ni209  1  0.16666667  0.70863505  0.70863505  1.0
  Ni  Ni210  1  0.50000000  0.04196838  0.70863505  1.0
  Ni  Ni211  1  0.50000000  0.37530172  0.70863505  1.0
  Ni  Ni212  1  0.50000000  0.70863505  0.70863505  1.0
  Ni  Ni213  1  0.83333333  0.04196838  0.70863505  1.0
  Ni  Ni214  1  0.83333333  0.37530172  0.70863505  1.0
  Ni  Ni215  1  0.83333333  0.70863505  0.70863505  1.0
  Ni  Ni216  1  0.33333333  0.26862032  0.74124765  1.0
  Ni  Ni217  1  0.33333333  0.60195365  0.74124765  1.0
  Ni  Ni218  1  0.33333333  0.93528698  0.74124765  1.0
  Ni  Ni219  1  0.66666667  0.26862032  0.74124765  1.0
  Ni  Ni220  1  0.66666667  0.60195365  0.74124765  1.0
  Ni  Ni221  1  0.66666667  0.93528698  0.74124765  1.0
  Ni  Ni222  1  1.00000000  0.26862032  0.74124765  1.0
  Ni  Ni223  1  0.00000000  0.60195365  0.74124765  1.0
  Ni  Ni224  1  1.00000000  0.93528698  0.74124765  1.0
  Ni  Ni225  1  0.16666667  0.00195365  0.64124765  1.0
  Ni  Ni226  1  0.16666667  0.33528698  0.64124765  1.0
  Ni  Ni227  1  0.16666667  0.66862032  0.64124765  1.0
  Ni  Ni228  1  0.50000000  0.00195365  0.64124765  1.0
  Ni  Ni229  1  0.50000000  0.33528698  0.64124765  1.0
  Ni  Ni230  1  0.50000000  0.66862032  0.64124765  1.0
  Ni  Ni231  1  0.83333333  0.00195365  0.64124765  1.0
  Ni  Ni232  1  0.83333333  0.33528698  0.64124765  1.0
  Ni  Ni233  1  0.83333333  0.66862032  0.64124765  1.0
  Ni  Ni234  1  0.08352883  0.23520878  0.79136495  1.0
  Ni  Ni235  1  0.08352883  0.56854212  0.79136495  1.0
  Ni  Ni236  1  0.08352883  0.90187545  0.79136495  1.0
  Ni  Ni237  1  0.41686217  0.23520878  0.79136495  1.0
  Ni  Ni238  1  0.41686217  0.56854212  0.79136495  1.0
  Ni  Ni239  1  0.41686217  0.90187545  0.79136495  1.0
  Ni  Ni240  1  0.75019550  0.23520878  0.79136495  1.0
  Ni  Ni241  1  0.75019550  0.56854212  0.79136495  1.0
  Ni  Ni242  1  0.75019550  0.90187545  0.79136495  1.0
  Ni  Ni243  1  0.25019550  0.30187545  0.69136495  1.0
  Ni  Ni244  1  0.25019550  0.63520878  0.69136495  1.0
  Ni  Ni245  1  0.25019550  0.96854212  0.69136495  1.0
  Ni  Ni246  1  0.58352883  0.30187545  0.69136495  1.0
  Ni  Ni247  1  0.58352883  0.63520878  0.69136495  1.0
  Ni  Ni248  1  0.58352883  0.96854212  0.69136495  1.0
  Ni  Ni249  1  0.91686217  0.30187545  0.69136495  1.0
  Ni  Ni250  1  0.91686217  0.63520878  0.69136495  1.0
  Ni  Ni251  1  0.91686217  0.96854212  0.69136495  1.0
  Ni  Ni252  1  0.33333333  0.18634658  0.74193225  1.0
  Ni  Ni253  1  0.33333333  0.51967992  0.74193225  1.0
  Ni  Ni254  1  0.33333333  0.85301325  0.74193225  1.0
  Ni  Ni255  1  0.66666667  0.18634658  0.74193225  1.0
  Ni  Ni256  1  0.66666667  0.51967992  0.74193225  1.0
  Ni  Ni257  1  0.66666667  0.85301325  0.74193225  1.0
  Ni  Ni258  1  1.00000000  0.18634658  0.74193225  1.0
  Ni  Ni259  1  0.00000000  0.51967992  0.74193225  1.0
  Ni  Ni260  1  0.00000000  0.85301325  0.74193225  1.0
  Ni  Ni261  1  0.16666667  0.25301325  0.64193225  1.0
  Ni  Ni262  1  0.16666667  0.58634658  0.64193225  1.0
  Ni  Ni263  1  0.16666667  0.91967992  0.64193225  1.0
  Ni  Ni264  1  0.50000000  0.25301325  0.64193225  1.0
  Ni  Ni265  1  0.50000000  0.58634658  0.64193225  1.0
  Ni  Ni266  1  0.50000000  0.91967992  0.64193225  1.0
  Ni  Ni267  1  0.83333333  0.25301325  0.64193225  1.0
  Ni  Ni268  1  0.83333333  0.58634658  0.64193225  1.0
  Ni  Ni269  1  0.83333333  0.91967992  0.64193225  1.0
  Ni  Ni270  1  0.00000000  0.14864978  0.67602245  1.0
  Ni  Ni271  1  0.00000000  0.48198312  0.67602245  1.0
  Ni  Ni272  1  0.00000000  0.81531645  0.67602245  1.0
  Ni  Ni273  1  0.33333333  0.14864978  0.67602245  1.0
  Ni  Ni274  1  0.33333333  0.48198312  0.67602245  1.0
  Ni  Ni275  1  0.33333333  0.81531645  0.67602245  1.0
  Ni  Ni276  1  0.66666667  0.14864978  0.67602245  1.0
  Ni  Ni277  1  0.66666667  0.48198312  0.67602245  1.0
  Ni  Ni278  1  0.66666667  0.81531645  0.67602245  1.0
  Ni  Ni279  1  0.16666667  0.08198312  0.77602245  1.0
  Ni  Ni280  1  0.16666667  0.41531645  0.77602245  1.0
  Ni  Ni281  1  0.16666667  0.74864978  0.77602245  1.0
  Ni  Ni282  1  0.50000000  0.08198312  0.77602245  1.0
  Ni  Ni283  1  0.50000000  0.41531645  0.77602245  1.0
  Ni  Ni284  1  0.50000000  0.74864978  0.77602245  1.0
  Ni  Ni285  1  0.83333333  0.08198312  0.77602245  1.0
  Ni  Ni286  1  0.83333333  0.41531645  0.77602245  1.0
  Ni  Ni287  1  0.83333333  0.74864978  0.77602245  1.0
  Ni  Ni288  1  0.33333333  0.23092352  0.67533785  1.0
  Ni  Ni289  1  0.33333333  0.56425685  0.67533785  1.0
  Ni  Ni290  1  0.33333333  0.89759018  0.67533785  1.0
  Ni  Ni291  1  0.66666667  0.23092352  0.67533785  1.0
  Ni  Ni292  1  0.66666667  0.56425685  0.67533785  1.0
  Ni  Ni293  1  0.66666667  0.89759018  0.67533785  1.0
  Ni  Ni294  1  1.00000000  0.23092352  0.67533785  1.0
  Ni  Ni295  1  0.00000000  0.56425685  0.67533785  1.0
  Ni  Ni296  1  0.00000000  0.89759018  0.67533785  1.0
  Ni  Ni297  1  0.16666667  0.16425685  0.77533785  1.0
  Ni  Ni298  1  0.16666667  0.49759018  0.77533785  1.0
  Ni  Ni299  1  0.16666667  0.83092352  0.77533785  1.0
  Ni  Ni300  1  0.50000000  0.16425685  0.77533785  1.0
  Ni  Ni301  1  0.50000000  0.49759018  0.77533785  1.0
  Ni  Ni302  1  0.50000000  0.83092352  0.77533785  1.0
  Ni  Ni303  1  0.83333333  0.16425685  0.77533785  1.0
  Ni  Ni304  1  0.83333333  0.49759018  0.77533785  1.0
  Ni  Ni305  1  0.83333333  0.83092352  0.77533785  1.0
  Ni  Ni306  1  0.24980450  0.23520878  0.79136495  1.0
  Ni  Ni307  1  0.24980450  0.56854212  0.79136495  1.0
  Ni  Ni308  1  0.24980450  0.90187545  0.79136495  1.0
  Ni  Ni309  1  0.58313783  0.23520878  0.79136495  1.0
  Ni  Ni310  1  0.58313783  0.56854212  0.79136495  1.0
  Ni  Ni311  1  0.58313783  0.90187545  0.79136495  1.0
  Ni  Ni312  1  0.91647117  0.23520878  0.79136495  1.0
  Ni  Ni313  1  0.91647117  0.56854212  0.79136495  1.0
  Ni  Ni314  1  0.91647117  0.90187545  0.79136495  1.0
  Ni  Ni315  1  0.08313783  0.30187545  0.69136495  1.0
  Ni  Ni316  1  0.08313783  0.63520878  0.69136495  1.0
  Ni  Ni317  1  0.08313783  0.96854212  0.69136495  1.0
  Ni  Ni318  1  0.41647117  0.30187545  0.69136495  1.0
  Ni  Ni319  1  0.41647117  0.63520878  0.69136495  1.0
  Ni  Ni320  1  0.41647117  0.96854212  0.69136495  1.0
  Ni  Ni321  1  0.74980450  0.30187545  0.69136495  1.0
  Ni  Ni322  1  0.74980450  0.63520878  0.69136495  1.0
  Ni  Ni323  1  0.74980450  0.96854212  0.69136495  1.0
  Y  Y324  1  0.00000000  0.24027632  0.95316665  1.0
  Y  Y325  1  0.00000000  0.57360965  0.95316665  1.0
  Y  Y326  1  0.00000000  0.90694298  0.95316665  1.0
  Y  Y327  1  0.33333333  0.24027632  0.95316665  1.0
  Y  Y328  1  0.33333333  0.57360965  0.95316665  1.0
  Y  Y329  1  0.33333333  0.90694298  0.95316665  1.0
  Y  Y330  1  0.66666667  0.24027632  0.95316665  1.0
  Y  Y331  1  0.66666667  0.57360965  0.95316665  1.0
  Y  Y332  1  0.66666667  0.90694298  0.95316665  1.0
  Y  Y333  1  0.16666667  0.30694298  0.85316665  1.0
  Y  Y334  1  0.16666667  0.64027632  0.85316665  1.0
  Y  Y335  1  0.16666667  0.97360965  0.85316665  1.0
  Y  Y336  1  0.50000000  0.30694298  0.85316665  1.0
  Y  Y337  1  0.50000000  0.64027632  0.85316665  1.0
  Y  Y338  1  0.50000000  0.97360965  0.85316665  1.0
  Y  Y339  1  0.83333333  0.30694298  0.85316665  1.0
  Y  Y340  1  0.83333333  0.64027632  0.85316665  1.0
  Y  Y341  1  0.83333333  0.97360965  0.85316665  1.0
  Y  Y342  1  0.33333333  0.24366045  0.86410345  1.0
  Y  Y343  1  0.33333333  0.57699378  0.86410345  1.0
  Y  Y344  1  0.33333333  0.91032712  0.86410345  1.0
  Y  Y345  1  0.66666667  0.24366045  0.86410345  1.0
  Y  Y346  1  0.66666667  0.57699378  0.86410345  1.0
  Y  Y347  1  0.66666667  0.91032712  0.86410345  1.0
  Y  Y348  1  1.00000000  0.24366045  0.86410345  1.0
  Y  Y349  1  0.00000000  0.57699378  0.86410345  1.0
  Y  Y350  1  0.00000000  0.91032712  0.86410345  1.0
  Y  Y351  1  0.16666667  0.17699378  0.96410345  1.0
  Y  Y352  1  0.16666667  0.51032712  0.96410345  1.0
  Y  Y353  1  0.16666667  0.84366045  0.96410345  1.0
  Y  Y354  1  0.50000000  0.17699378  0.96410345  1.0
  Y  Y355  1  0.50000000  0.51032712  0.96410345  1.0
  Y  Y356  1  0.50000000  0.84366045  0.96410345  1.0
  Y  Y357  1  0.83333333  0.17699378  0.96410345  1.0
  Y  Y358  1  0.83333333  0.51032712  0.96410345  1.0
  Y  Y359  1  0.83333333  0.84366045  0.96410345  1.0
  Y  Y360  1  0.00000000  0.14196838  0.80863505  1.0
  Y  Y361  1  0.00000000  0.47530172  0.80863505  1.0
  Y  Y362  1  0.00000000  0.80863505  0.80863505  1.0
  Y  Y363  1  0.33333333  0.14196838  0.80863505  1.0
  Y  Y364  1  0.33333333  0.47530172  0.80863505  1.0
  Y  Y365  1  0.33333333  0.80863505  0.80863505  1.0
  Y  Y366  1  0.66666667  0.14196838  0.80863505  1.0
  Y  Y367  1  0.66666667  0.47530172  0.80863505  1.0
  Y  Y368  1  0.66666667  0.80863505  0.80863505  1.0
  Y  Y369  1  0.16666667  0.07530172  0.90863505  1.0
  Y  Y370  1  0.16666667  0.40863505  0.90863505  1.0
  Y  Y371  1  0.16666667  0.74196838  0.90863505  1.0
  Y  Y372  1  0.50000000  0.07530172  0.90863505  1.0
  Y  Y373  1  0.50000000  0.40863505  0.90863505  1.0
  Y  Y374  1  0.50000000  0.74196838  0.90863505  1.0
  Y  Y375  1  0.83333333  0.07530172  0.90863505  1.0
  Y  Y376  1  0.83333333  0.40863505  0.90863505  1.0
  Y  Y377  1  0.83333333  0.74196838  0.90863505  1.0
  Y  Y378  1  0.00000000  0.04027632  0.75316665  1.0
  Y  Y379  1  0.00000000  0.37360965  0.75316665  1.0
  Y  Y380  1  0.00000000  0.70694298  0.75316665  1.0
  Y  Y381  1  0.33333333  0.04027632  0.75316665  1.0
  Y  Y382  1  0.33333333  0.37360965  0.75316665  1.0
  Y  Y383  1  0.33333333  0.70694298  0.75316665  1.0
  Y  Y384  1  0.66666667  0.04027632  0.75316665  1.0
  Y  Y385  1  0.66666667  0.37360965  0.75316665  1.0
  Y  Y386  1  0.66666667  0.70694298  0.75316665  1.0
  Y  Y387  1  0.16666667  0.10694298  0.65316665  1.0
  Y  Y388  1  0.16666667  0.44027632  0.65316665  1.0
  Y  Y389  1  0.16666667  0.77360965  0.65316665  1.0
  Y  Y390  1  0.50000000  0.10694298  0.65316665  1.0
  Y  Y391  1  0.50000000  0.44027632  0.65316665  1.0
  Y  Y392  1  0.50000000  0.77360965  0.65316665  1.0
  Y  Y393  1  0.83333333  0.10694298  0.65316665  1.0
  Y  Y394  1  0.83333333  0.44027632  0.65316665  1.0
  Y  Y395  1  0.83333333  0.77360965  0.65316665  1.0
  Y  Y396  1  0.33333333  0.04366045  0.66410345  1.0
  Y  Y397  1  0.33333333  0.37699378  0.66410345  1.0
  Y  Y398  1  0.33333333  0.71032712  0.66410345  1.0
  Y  Y399  1  0.66666667  0.04366045  0.66410345  1.0
  Y  Y400  1  0.66666667  0.37699378  0.66410345  1.0
  Y  Y401  1  0.66666667  0.71032712  0.66410345  1.0
  Y  Y402  1  1.00000000  0.04366045  0.66410345  1.0
  Y  Y403  1  1.00000000  0.37699378  0.66410345  1.0
  Y  Y404  1  1.00000000  0.71032712  0.66410345  1.0
  Y  Y405  1  0.16666667  0.31032712  0.76410345  1.0
  Y  Y406  1  0.16666667  0.64366045  0.76410345  1.0
  Y  Y407  1  0.16666667  0.97699378  0.76410345  1.0
  Y  Y408  1  0.50000000  0.31032712  0.76410345  1.0
  Y  Y409  1  0.50000000  0.64366045  0.76410345  1.0
  Y  Y410  1  0.50000000  0.97699378  0.76410345  1.0
  Y  Y411  1  0.83333333  0.31032712  0.76410345  1.0
  Y  Y412  1  0.83333333  0.64366045  0.76410345  1.0
  Y  Y413  1  0.83333333  0.97699378  0.76410345  1.0
  Y  Y414  1  0.33333333  0.27530172  0.60863505  1.0
  Y  Y415  1  0.33333333  0.60863505  0.60863505  1.0
  Y  Y416  1  0.33333333  0.94196838  0.60863505  1.0
  Y  Y417  1  0.66666667  0.27530172  0.60863505  1.0
  Y  Y418  1  0.66666667  0.60863505  0.60863505  1.0
  Y  Y419  1  0.66666667  0.94196838  0.60863505  1.0
  Y  Y420  1  1.00000000  0.27530172  0.60863505  1.0
  Y  Y421  1  0.00000000  0.60863505  0.60863505  1.0
  Y  Y422  1  1.00000000  0.94196838  0.60863505  1.0
  Y  Y423  1  0.16666667  0.20863505  0.70863505  1.0
  Y  Y424  1  0.16666667  0.54196838  0.70863505  1.0
  Y  Y425  1  0.16666667  0.87530172  0.70863505  1.0
  Y  Y426  1  0.50000000  0.20863505  0.70863505  1.0
  Y  Y427  1  0.50000000  0.54196838  0.70863505  1.0
  Y  Y428  1  0.50000000  0.87530172  0.70863505  1.0
  Y  Y429  1  0.83333333  0.20863505  0.70863505  1.0
  Y  Y430  1  0.83333333  0.54196838  0.70863505  1.0
  Y  Y431  1  0.83333333  0.87530172  0.70863505  1.0
