# generated using pymatgen
data_YNi3
_symmetry_space_group_name_H-M   'P 1'
_cell_length_a   14.90398246
_cell_length_b   33.35354086
_cell_length_c   43.08264995
_cell_angle_alpha   58.84330432
_cell_angle_beta   106.75517548
_cell_angle_gamma   77.08976189
_symmetry_Int_Tables_number   1
_chemical_formula_structural   YNi3
_chemical_formula_sum   'Y108 Ni324'
_cell_volume   15630.22251852
_cell_formula_units_Z   108
loop_
 _symmetry_equiv_pos_site_id
 _symmetry_equiv_pos_as_xyz
  1  'x, y, z'
loop_
 _atom_site_type_symbol
 _atom_site_label
 _atom_site_symmetry_multiplicity
 _atom_site_fract_x
 _atom_site_fract_y
 _atom_site_fract_z
 _atom_site_occupancy
  Y  Y0  1  0.04622367  0.02311183  0.06474770  1.0
  Y  Y1  1  0.04622367  0.35644517  0.06474770  1.0
  Y  Y2  1  0.04622367  0.68977850  0.06474770  1.0
  Y  Y3  1  0.37955700  0.02311183  0.06474770  1.0
  Y  Y4  1  0.37955700  0.35644517  0.06474770  1.0
  Y  Y5  1  0.37955700  0.68977850  0.06474770  1.0
  Y  Y6  1  0.71289033  0.02311183  0.06474770  1.0
  Y  Y7  1  0.71289033  0.35644517  0.06474770  1.0
  Y  Y8  1  0.71289033  0.68977850  0.06474770  1.0
  Y  Y9  1  0.04622367  0.18977850  0.16474770  1.0
  Y  Y10  1  0.04622367  0.52311183  0.16474770  1.0
  Y  Y11  1  0.04622367  0.85644517  0.16474770  1.0
  Y  Y12  1  0.37955700  0.18977850  0.16474770  1.0
  Y  Y13  1  0.37955700  0.52311183  0.16474770  1.0
  Y  Y14  1  0.37955700  0.85644517  0.16474770  1.0
  Y  Y15  1  0.71289033  0.18977850  0.16474770  1.0
  Y  Y16  1  0.71289033  0.52311183  0.16474770  1.0
  Y  Y17  1  0.71289033  0.85644517  0.16474770  1.0
  Y  Y18  1  0.28710967  0.14355483  0.02607670  1.0
  Y  Y19  1  0.28710967  0.47688817  0.02607670  1.0
  Y  Y20  1  0.28710967  0.81022150  0.02607670  1.0
  Y  Y21  1  0.62044300  0.14355483  0.02607670  1.0
  Y  Y22  1  0.62044300  0.47688817  0.02607670  1.0
  Y  Y23  1  0.62044300  0.81022150  0.02607670  1.0
  Y  Y24  1  0.95377633  0.14355483  0.02607670  1.0
  Y  Y25  1  0.95377633  0.47688817  0.02607670  1.0
  Y  Y26  1  0.95377633  0.81022150  0.02607670  1.0
  Y  Y27  1  0.28710967  0.31022150  0.12607670  1.0
  Y  Y28  1  0.28710967  0.64355483  0.12607670  1.0
  Y  Y29  1  0.28710967  0.97688817  0.12607670  1.0
  Y  Y30  1  0.62044300  0.31022150  0.12607670  1.0
  Y  Y31  1  0.62044300  0.64355483  0.12607670  1.0
  Y  Y32  1  0.62044300  0.97688817  0.12607670  1.0
  Y  Y33  1  0.95377633  0.31022150  0.12607670  1.0
  Y  Y34  1  0.95377633  0.64355483  0.12607670  1.0
  Y  Y35  1  0.95377633  0.97688817  0.12607670  1.0
  Y  Y36  1  0.00000000  0.00000000  0.19541220  1.0
  Y  Y37  1  0.00000000  0.33333333  0.19541220  1.0
  Y  Y38  1  0.00000000  0.66666667  0.19541220  1.0
  Y  Y39  1  0.33333333  0.00000000  0.19541220  1.0
  Y  Y40  1  0.33333333  0.33333333  0.19541220  1.0
  Y  Y41  1  0.33333333  0.66666667  0.19541220  1.0
  Y  Y42  1  0.66666667  0.00000000  0.19541220  1.0
  Y  Y43  1  0.66666667  0.33333333  0.19541220  1.0
  Y  Y44  1  0.66666667  0.66666667  0.19541220  1.0
  Y  Y45  1  0.00000000  0.16666667  0.09541220  1.0
  Y  Y46  1  0.00000000  0.50000000  0.09541220  1.0
  Y  Y47  1  0.00000000  0.83333333  0.09541220  1.0
  Y  Y48  1  0.33333333  0.16666667  0.09541220  1.0
  Y  Y49  1  0.33333333  0.50000000  0.09541220  1.0
  Y  Y50  1  0.33333333  0.83333333  0.09541220  1.0
  Y  Y51  1  0.66666667  0.16666667  0.09541220  1.0
  Y  Y52  1  0.66666667  0.50000000  0.09541220  1.0
  Y  Y53  1  0.66666667  0.83333333  0.09541220  1.0
  Ni  Ni54  1  0.02698167  0.09701967  0.18623660  1.0
  Ni  Ni55  1  0.02698167  0.43035300  0.18623660  1.0
  Ni  Ni56  1  0.02698167  0.76368633  0.18623660  1.0
  Ni  Ni57  1  0.36031500  0.09701967  0.18623660  1.0
  Ni  Ni58  1  0.36031500  0.43035300  0.18623660  1.0
  Ni  Ni59  1  0.36031500  0.76368633  0.18623660  1.0
  Ni  Ni60  1  0.69364833  0.09701967  0.18623660  1.0
  Ni  Ni61  1  0.69364833  0.43035300  0.18623660  1.0
  Ni  Ni62  1  0.69364833  0.76368633  0.18623660  1.0
  Ni  Ni63  1  0.02698167  0.26368633  0.08623660  1.0
  Ni  Ni64  1  0.02698167  0.59701967  0.08623660  1.0
  Ni  Ni65  1  0.02698167  0.93035300  0.08623660  1.0
  Ni  Ni66  1  0.36031500  0.26368633  0.08623660  1.0
  Ni  Ni67  1  0.36031500  0.59701967  0.08623660  1.0
  Ni  Ni68  1  0.36031500  0.93035300  0.08623660  1.0
  Ni  Ni69  1  0.69364833  0.26368633  0.08623660  1.0
  Ni  Ni70  1  0.69364833  0.59701967  0.08623660  1.0
  Ni  Ni71  1  0.69364833  0.93035300  0.08623660  1.0
  Ni  Ni72  1  0.19403933  0.01349083  0.03635390  1.0
  Ni  Ni73  1  0.19403933  0.34682417  0.03635390  1.0
  Ni  Ni74  1  0.19403933  0.68015750  0.03635390  1.0
  Ni  Ni75  1  0.52737267  0.01349083  0.03635390  1.0
  Ni  Ni76  1  0.52737267  0.34682417  0.03635390  1.0
  Ni  Ni77  1  0.52737267  0.68015750  0.03635390  1.0
  Ni  Ni78  1  0.86070600  0.01349083  0.03635390  1.0
  Ni  Ni79  1  0.86070600  0.34682417  0.03635390  1.0
  Ni  Ni80  1  0.86070600  0.68015750  0.03635390  1.0
  Ni  Ni81  1  0.19403933  0.18015750  0.13635390  1.0
  Ni  Ni82  1  0.19403933  0.51349083  0.13635390  1.0
  Ni  Ni83  1  0.19403933  0.84682417  0.13635390  1.0
  Ni  Ni84  1  0.52737267  0.18015750  0.13635390  1.0
  Ni  Ni85  1  0.52737267  0.51349083  0.13635390  1.0
  Ni  Ni86  1  0.52737267  0.84682417  0.13635390  1.0
  Ni  Ni87  1  0.86070600  0.18015750  0.13635390  1.0
  Ni  Ni88  1  0.86070600  0.51349083  0.13635390  1.0
  Ni  Ni89  1  0.86070600  0.84682417  0.13635390  1.0
  Ni  Ni90  1  0.16666667  0.08333333  0.04541220  1.0
  Ni  Ni91  1  0.16666667  0.41666667  0.04541220  1.0
  Ni  Ni92  1  0.16666667  0.75000000  0.04541220  1.0
  Ni  Ni93  1  0.50000000  0.08333333  0.04541220  1.0
  Ni  Ni94  1  0.50000000  0.41666667  0.04541220  1.0
  Ni  Ni95  1  0.50000000  0.75000000  0.04541220  1.0
  Ni  Ni96  1  0.83333333  0.08333333  0.04541220  1.0
  Ni  Ni97  1  0.83333333  0.41666667  0.04541220  1.0
  Ni  Ni98  1  0.83333333  0.75000000  0.04541220  1.0
  Ni  Ni99  1  0.16666667  0.25000000  0.14541220  1.0
  Ni  Ni100  1  0.16666667  0.58333333  0.14541220  1.0
  Ni  Ni101  1  0.16666667  0.91666667  0.14541220  1.0
  Ni  Ni102  1  0.50000000  0.25000000  0.14541220  1.0
  Ni  Ni103  1  0.50000000  0.58333333  0.14541220  1.0
  Ni  Ni104  1  0.50000000  0.91666667  0.14541220  1.0
  Ni  Ni105  1  0.83333333  0.25000000  0.14541220  1.0
  Ni  Ni106  1  0.83333333  0.58333333  0.14541220  1.0
  Ni  Ni107  1  0.83333333  0.91666667  0.14541220  1.0
  Ni  Ni108  1  0.13929400  0.06964700  0.10458780  1.0
  Ni  Ni109  1  0.13929400  0.40298033  0.10458780  1.0
  Ni  Ni110  1  0.13929400  0.73631367  0.10458780  1.0
  Ni  Ni111  1  0.47262733  0.06964700  0.10458780  1.0
  Ni  Ni112  1  0.47262733  0.40298033  0.10458780  1.0
  Ni  Ni113  1  0.47262733  0.73631367  0.10458780  1.0
  Ni  Ni114  1  0.80596067  0.06964700  0.10458780  1.0
  Ni  Ni115  1  0.80596067  0.40298033  0.10458780  1.0
  Ni  Ni116  1  0.80596067  0.73631367  0.10458780  1.0
  Ni  Ni117  1  0.13929400  0.23631367  0.00458780  1.0
  Ni  Ni118  1  0.13929400  0.56964700  0.00458780  1.0
  Ni  Ni119  1  0.13929400  0.90298033  0.00458780  1.0
  Ni  Ni120  1  0.47262733  0.23631367  0.00458780  1.0
  Ni  Ni121  1  0.47262733  0.56964700  0.00458780  1.0
  Ni  Ni122  1  0.47262733  0.90298033  0.00458780  1.0
  Ni  Ni123  1  0.80596067  0.23631367  0.00458780  1.0
  Ni  Ni124  1  0.80596067  0.56964700  0.00458780  1.0
  Ni  Ni125  1  0.80596067  0.90298033  0.00458780  1.0
  Ni  Ni126  1  0.30635167  0.06964700  0.10458780  1.0
  Ni  Ni127  1  0.30635167  0.40298033  0.10458780  1.0
  Ni  Ni128  1  0.30635167  0.73631367  0.10458780  1.0
  Ni  Ni129  1  0.63968500  0.06964700  0.10458780  1.0
  Ni  Ni130  1  0.63968500  0.40298033  0.10458780  1.0
  Ni  Ni131  1  0.63968500  0.73631367  0.10458780  1.0
  Ni  Ni132  1  0.97301833  0.06964700  0.10458780  1.0
  Ni  Ni133  1  0.97301833  0.40298033  0.10458780  1.0
  Ni  Ni134  1  0.97301833  0.73631367  0.10458780  1.0
  Ni  Ni135  1  0.30635167  0.23631367  0.00458780  1.0
  Ni  Ni136  1  0.30635167  0.56964700  0.00458780  1.0
  Ni  Ni137  1  0.30635167  0.90298033  0.00458780  1.0
  Ni  Ni138  1  0.63968500  0.23631367  0.00458780  1.0
  Ni  Ni139  1  0.63968500  0.56964700  0.00458780  1.0
  Ni  Ni140  1  0.63968500  0.90298033  0.00458780  1.0
  Ni  Ni141  1  0.97301833  0.23631367  0.00458780  1.0
  Ni  Ni142  1  0.97301833  0.56964700  0.00458780  1.0
  Ni  Ni143  1  0.97301833  0.90298033  0.00458780  1.0
  Ni  Ni144  1  0.22225233  0.11112617  0.12879070  1.0
  Ni  Ni145  1  0.22225233  0.44445950  0.12879070  1.0
  Ni  Ni146  1  0.22225233  0.77779283  0.12879070  1.0
  Ni  Ni147  1  0.55558567  0.11112617  0.12879070  1.0
  Ni  Ni148  1  0.55558567  0.44445950  0.12879070  1.0
  Ni  Ni149  1  0.55558567  0.77779283  0.12879070  1.0
  Ni  Ni150  1  0.88891900  0.11112617  0.12879070  1.0
  Ni  Ni151  1  0.88891900  0.44445950  0.12879070  1.0
  Ni  Ni152  1  0.88891900  0.77779283  0.12879070  1.0
  Ni  Ni153  1  0.22225233  0.27779283  0.02879070  1.0
  Ni  Ni154  1  0.22225233  0.61112617  0.02879070  1.0
  Ni  Ni155  1  0.22225233  0.94445950  0.02879070  1.0
  Ni  Ni156  1  0.55558567  0.27779283  0.02879070  1.0
  Ni  Ni157  1  0.55558567  0.61112617  0.02879070  1.0
  Ni  Ni158  1  0.55558567  0.94445950  0.02879070  1.0
  Ni  Ni159  1  0.88891900  0.27779283  0.02879070  1.0
  Ni  Ni160  1  0.88891900  0.61112617  0.02879070  1.0
  Ni  Ni161  1  0.88891900  0.94445950  0.02879070  1.0
  Ni  Ni162  1  0.19403933  0.09701967  0.18623660  1.0
  Ni  Ni163  1  0.19403933  0.43035300  0.18623660  1.0
  Ni  Ni164  1  0.19403933  0.76368633  0.18623660  1.0
  Ni  Ni165  1  0.52737267  0.09701967  0.18623660  1.0
  Ni  Ni166  1  0.52737267  0.43035300  0.18623660  1.0
  Ni  Ni167  1  0.52737267  0.76368633  0.18623660  1.0
  Ni  Ni168  1  0.86070600  0.09701967  0.18623660  1.0
  Ni  Ni169  1  0.86070600  0.43035300  0.18623660  1.0
  Ni  Ni170  1  0.86070600  0.76368633  0.18623660  1.0
  Ni  Ni171  1  0.19403933  0.26368633  0.08623660  1.0
  Ni  Ni172  1  0.19403933  0.59701967  0.08623660  1.0
  Ni  Ni173  1  0.19403933  0.93035300  0.08623660  1.0
  Ni  Ni174  1  0.52737267  0.26368633  0.08623660  1.0
  Ni  Ni175  1  0.52737267  0.59701967  0.08623660  1.0
  Ni  Ni176  1  0.52737267  0.93035300  0.08623660  1.0
  Ni  Ni177  1  0.86070600  0.26368633  0.08623660  1.0
  Ni  Ni178  1  0.86070600  0.59701967  0.08623660  1.0
  Ni  Ni179  1  0.86070600  0.93035300  0.08623660  1.0
  Ni  Ni180  1  0.11108100  0.05554050  0.16203370  1.0
  Ni  Ni181  1  0.11108100  0.38887383  0.16203370  1.0
  Ni  Ni182  1  0.11108100  0.72220717  0.16203370  1.0
  Ni  Ni183  1  0.44441433  0.05554050  0.16203370  1.0
  Ni  Ni184  1  0.44441433  0.38887383  0.16203370  1.0
  Ni  Ni185  1  0.44441433  0.72220717  0.16203370  1.0
  Ni  Ni186  1  0.77774767  0.05554050  0.16203370  1.0
  Ni  Ni187  1  0.77774767  0.38887383  0.16203370  1.0
  Ni  Ni188  1  0.77774767  0.72220717  0.16203370  1.0
  Ni  Ni189  1  0.11108100  0.22220717  0.06203370  1.0
  Ni  Ni190  1  0.11108100  0.55554050  0.06203370  1.0
  Ni  Ni191  1  0.11108100  0.88887383  0.06203370  1.0
  Ni  Ni192  1  0.44441433  0.22220717  0.06203370  1.0
  Ni  Ni193  1  0.44441433  0.55554050  0.06203370  1.0
  Ni  Ni194  1  0.44441433  0.88887383  0.06203370  1.0
  Ni  Ni195  1  0.77774767  0.22220717  0.06203370  1.0
  Ni  Ni196  1  0.77774767  0.55554050  0.06203370  1.0
  Ni  Ni197  1  0.77774767  0.88887383  0.06203370  1.0
  Ni  Ni198  1  0.13929400  0.15317583  0.05447050  1.0
  Ni  Ni199  1  0.13929400  0.48650917  0.05447050  1.0
  Ni  Ni200  1  0.13929400  0.81984250  0.05447050  1.0
  Ni  Ni201  1  0.47262733  0.15317583  0.05447050  1.0
  Ni  Ni202  1  0.47262733  0.48650917  0.05447050  1.0
  Ni  Ni203  1  0.47262733  0.81984250  0.05447050  1.0
  Ni  Ni204  1  0.80596067  0.15317583  0.05447050  1.0
  Ni  Ni205  1  0.80596067  0.48650917  0.05447050  1.0
  Ni  Ni206  1  0.80596067  0.81984250  0.05447050  1.0
  Ni  Ni207  1  0.13929400  0.31984250  0.15447050  1.0
  Ni  Ni208  1  0.13929400  0.65317583  0.15447050  1.0
  Ni  Ni209  1  0.13929400  0.98650917  0.15447050  1.0
  Ni  Ni210  1  0.47262733  0.31984250  0.15447050  1.0
  Ni  Ni211  1  0.47262733  0.65317583  0.15447050  1.0
  Ni  Ni212  1  0.47262733  0.98650917  0.15447050  1.0
  Ni  Ni213  1  0.80596067  0.31984250  0.15447050  1.0
  Ni  Ni214  1  0.80596067  0.65317583  0.15447050  1.0
  Ni  Ni215  1  0.80596067  0.98650917  0.15447050  1.0
  Y  Y216  1  0.04622367  0.02311183  0.26474770  1.0
  Y  Y217  1  0.04622367  0.35644517  0.26474770  1.0
  Y  Y218  1  0.04622367  0.68977850  0.26474770  1.0
  Y  Y219  1  0.37955700  0.02311183  0.26474770  1.0
  Y  Y220  1  0.37955700  0.35644517  0.26474770  1.0
  Y  Y221  1  0.37955700  0.68977850  0.26474770  1.0
  Y  Y222  1  0.71289033  0.02311183  0.26474770  1.0
  Y  Y223  1  0.71289033  0.35644517  0.26474770  1.0
  Y  Y224  1  0.71289033  0.68977850  0.26474770  1.0
  Y  Y225  1  0.04622367  0.18977850  0.36474770  1.0
  Y  Y226  1  0.04622367  0.52311183  0.36474770  1.0
  Y  Y227  1  0.04622367  0.85644517  0.36474770  1.0
  Y  Y228  1  0.37955700  0.18977850  0.36474770  1.0
  Y  Y229  1  0.37955700  0.52311183  0.36474770  1.0
  Y  Y230  1  0.37955700  0.85644517  0.36474770  1.0
  Y  Y231  1  0.71289033  0.18977850  0.36474770  1.0
  Y  Y232  1  0.71289033  0.52311183  0.36474770  1.0
  Y  Y233  1  0.71289033  0.85644517  0.36474770  1.0
  Y  Y234  1  0.28710967  0.14355483  0.22607670  1.0
  Y  Y235  1  0.28710967  0.47688817  0.22607670  1.0
  Y  Y236  1  0.28710967  0.81022150  0.22607670  1.0
  Y  Y237  1  0.62044300  0.14355483  0.22607670  1.0
  Y  Y238  1  0.62044300  0.47688817  0.22607670  1.0
  Y  Y239  1  0.62044300  0.81022150  0.22607670  1.0
  Y  Y240  1  0.95377633  0.14355483  0.22607670  1.0
  Y  Y241  1  0.95377633  0.47688817  0.22607670  1.0
  Y  Y242  1  0.95377633  0.81022150  0.22607670  1.0
  Y  Y243  1  0.28710967  0.31022150  0.32607670  1.0
  Y  Y244  1  0.28710967  0.64355483  0.32607670  1.0
  Y  Y245  1  0.28710967  0.97688817  0.32607670  1.0
  Y  Y246  1  0.62044300  0.31022150  0.32607670  1.0
  Y  Y247  1  0.62044300  0.64355483  0.32607670  1.0
  Y  Y248  1  0.62044300  0.97688817  0.32607670  1.0
  Y  Y249  1  0.95377633  0.31022150  0.32607670  1.0
  Y  Y250  1  0.95377633  0.64355483  0.32607670  1.0
  Y  Y251  1  0.95377633  0.97688817  0.32607670  1.0
  Y  Y252  1  0.00000000  0.00000000  0.39541220  1.0
  Y  Y253  1  0.00000000  0.33333333  0.39541220  1.0
  Y  Y254  1  0.00000000  0.66666667  0.39541220  1.0
  Y  Y255  1  0.33333333  0.00000000  0.39541220  1.0
  Y  Y256  1  0.33333333  0.33333333  0.39541220  1.0
  Y  Y257  1  0.33333333  0.66666667  0.39541220  1.0
  Y  Y258  1  0.66666667  0.00000000  0.39541220  1.0
  Y  Y259  1  0.66666667  0.33333333  0.39541220  1.0
  Y  Y260  1  0.66666667  0.66666667  0.39541220  1.0
  Y  Y261  1  0.00000000  0.16666667  0.29541220  1.0
  Y  Y262  1  0.00000000  0.50000000  0.29541220  1.0
  Y  Y263  1  0.00000000  0.83333333  0.29541220  1.0
  Y  Y264  1  0.33333333  0.16666667  0.29541220  1.0
  Y  Y265  1  0.33333333  0.50000000  0.29541220  1.0
  Y  Y266  1  0.33333333  0.83333333  0.29541220  1.0
  Y  Y267  1  0.66666667  0.16666667  0.29541220  1.0
  Y  Y268  1  0.66666667  0.50000000  0.29541220  1.0
  Y  Y269  1  0.66666667  0.83333333  0.29541220  1.0
  Ni  Ni270  1  0.02698167  0.09701967  0.38623660  1.0
  Ni  Ni271  1  0.02698167  0.43035300  0.38623660  1.0
  Ni  Ni272  1  0.02698167  0.76368633  0.38623660  1.0
  Ni  Ni273  1  0.36031500  0.09701967  0.38623660  1.0
  Ni  Ni274  1  0.36031500  0.43035300  0.38623660  1.0
  Ni  Ni275  1  0.36031500  0.76368633  0.38623660  1.0
  Ni  Ni276  1  0.69364833  0.09701967  0.38623660  1.0
  Ni  Ni277  1  0.69364833  0.43035300  0.38623660  1.0
  Ni  Ni278  1  0.69364833  0.76368633  0.38623660  1.0
  Ni  Ni279  1  0.02698167  0.26368633  0.28623660  1.0
  Ni  Ni280  1  0.02698167  0.59701967  0.28623660  1.0
  Ni  Ni281  1  0.02698167  0.93035300  0.28623660  1.0
  Ni  Ni282  1  0.36031500  0.26368633  0.28623660  1.0
  Ni  Ni283  1  0.36031500  0.59701967  0.28623660  1.0
  Ni  Ni284  1  0.36031500  0.93035300  0.28623660  1.0
  Ni  Ni285  1  0.69364833  0.26368633  0.28623660  1.0
  Ni  Ni286  1  0.69364833  0.59701967  0.28623660  1.0
  Ni  Ni287  1  0.69364833  0.93035300  0.28623660  1.0
  Ni  Ni288  1  0.19403933  0.01349083  0.23635390  1.0
  Ni  Ni289  1  0.19403933  0.34682417  0.23635390  1.0
  Ni  Ni290  1  0.19403933  0.68015750  0.23635390  1.0
  Ni  Ni291  1  0.52737267  0.01349083  0.23635390  1.0
  Ni  Ni292  1  0.52737267  0.34682417  0.23635390  1.0
  Ni  Ni293  1  0.52737267  0.68015750  0.23635390  1.0
  Ni  Ni294  1  0.86070600  0.01349083  0.23635390  1.0
  Ni  Ni295  1  0.86070600  0.34682417  0.23635390  1.0
  Ni  Ni296  1  0.86070600  0.68015750  0.23635390  1.0
  Ni  Ni297  1  0.19403933  0.18015750  0.33635390  1.0
  Ni  Ni298  1  0.19403933  0.51349083  0.33635390  1.0
  Ni  Ni299  1  0.19403933  0.84682417  0.33635390  1.0
  Ni  Ni300  1  0.52737267  0.18015750  0.33635390  1.0
  Ni  Ni301  1  0.52737267  0.51349083  0.33635390  1.0
  Ni  Ni302  1  0.52737267  0.84682417  0.33635390  1.0
  Ni  Ni303  1  0.86070600  0.18015750  0.33635390  1.0
  Ni  Ni304  1  0.86070600  0.51349083  0.33635390  1.0
  Ni  Ni305  1  0.86070600  0.84682417  0.33635390  1.0
  Ni  Ni306  1  0.16666667  0.08333333  0.24541220  1.0
  Ni  Ni307  1  0.16666667  0.41666667  0.24541220  1.0
  Ni  Ni308  1  0.16666667  0.75000000  0.24541220  1.0
  Ni  Ni309  1  0.50000000  0.08333333  0.24541220  1.0
  Ni  Ni310  1  0.50000000  0.41666667  0.24541220  1.0
  Ni  Ni311  1  0.50000000  0.75000000  0.24541220  1.0
  Ni  Ni312  1  0.83333333  0.08333333  0.24541220  1.0
  Ni  Ni313  1  0.83333333  0.41666667  0.24541220  1.0
  Ni  Ni314  1  0.83333333  0.75000000  0.24541220  1.0
  Ni  Ni315  1  0.16666667  0.25000000  0.34541220  1.0
  Ni  Ni316  1  0.16666667  0.58333333  0.34541220  1.0
  Ni  Ni317  1  0.16666667  0.91666667  0.34541220  1.0
  Ni  Ni318  1  0.50000000  0.25000000  0.34541220  1.0
  Ni  Ni319  1  0.50000000  0.58333333  0.34541220  1.0
  Ni  Ni320  1  0.50000000  0.91666667  0.34541220  1.0
  Ni  Ni321  1  0.83333333  0.25000000  0.34541220  1.0
  Ni  Ni322  1  0.83333333  0.58333333  0.34541220  1.0
  Ni  Ni323  1  0.83333333  0.91666667  0.34541220  1.0
  Ni  Ni324  1  0.13929400  0.06964700  0.30458780  1.0
  Ni  Ni325  1  0.13929400  0.40298033  0.30458780  1.0
  Ni  Ni326  1  0.13929400  0.73631367  0.30458780  1.0
  Ni  Ni327  1  0.47262733  0.06964700  0.30458780  1.0
  Ni  Ni328  1  0.47262733  0.40298033  0.30458780  1.0
  Ni  Ni329  1  0.47262733  0.73631367  0.30458780  1.0
  Ni  Ni330  1  0.80596067  0.06964700  0.30458780  1.0
  Ni  Ni331  1  0.80596067  0.40298033  0.30458780  1.0
  Ni  Ni332  1  0.80596067  0.73631367  0.30458780  1.0
  Ni  Ni333  1  0.13929400  0.23631367  0.20458780  1.0
  Ni  Ni334  1  0.13929400  0.56964700  0.20458780  1.0
  Ni  Ni335  1  0.13929400  0.90298033  0.20458780  1.0
  Ni  Ni336  1  0.47262733  0.23631367  0.20458780  1.0
  Ni  Ni337  1  0.47262733  0.56964700  0.20458780  1.0
  Ni  Ni338  1  0.47262733  0.90298033  0.20458780  1.0
  Ni  Ni339  1  0.80596067  0.23631367  0.20458780  1.0
  Ni  Ni340  1  0.80596067  0.56964700  0.20458780  1.0
  Ni  Ni341  1  0.80596067  0.90298033  0.20458780  1.0
  Ni  Ni342  1  0.30635167  0.06964700  0.30458780  1.0
  Ni  Ni343  1  0.30635167  0.40298033  0.30458780  1.0
  Ni  Ni344  1  0.30635167  0.73631367  0.30458780  1.0
  Ni  Ni345  1  0.63968500  0.06964700  0.30458780  1.0
  Ni  Ni346  1  0.63968500  0.40298033  0.30458780  1.0
  Ni  Ni347  1  0.63968500  0.73631367  0.30458780  1.0
  Ni  Ni348  1  0.97301833  0.06964700  0.30458780  1.0
  Ni  Ni349  1  0.97301833  0.40298033  0.30458780  1.0
  Ni  Ni350  1  0.97301833  0.73631367  0.30458780  1.0
  Ni  Ni351  1  0.30635167  0.23631367  0.20458780  1.0
  Ni  Ni352  1  0.30635167  0.56964700  0.20458780  1.0
  Ni  Ni353  1  0.30635167  0.90298033  0.20458780  1.0
  Ni  Ni354  1  0.63968500  0.23631367  0.20458780  1.0
  Ni  Ni355  1  0.63968500  0.56964700  0.20458780  1.0
  Ni  Ni356  1  0.63968500  0.90298033  0.20458780  1.0
  Ni  Ni357  1  0.97301833  0.23631367  0.20458780  1.0
  Ni  Ni358  1  0.97301833  0.56964700  0.20458780  1.0
  Ni  Ni359  1  0.97301833  0.90298033  0.20458780  1.0
  Ni  Ni360  1  0.22225233  0.11112617  0.32879070  1.0
  Ni  Ni361  1  0.22225233  0.44445950  0.32879070  1.0
  Ni  Ni362  1  0.22225233  0.77779283  0.32879070  1.0
  Ni  Ni363  1  0.55558567  0.11112617  0.32879070  1.0
  Ni  Ni364  1  0.55558567  0.44445950  0.32879070  1.0
  Ni  Ni365  1  0.55558567  0.77779283  0.32879070  1.0
  Ni  Ni366  1  0.88891900  0.11112617  0.32879070  1.0
  Ni  Ni367  1  0.88891900  0.44445950  0.32879070  1.0
  Ni  Ni368  1  0.88891900  0.77779283  0.32879070  1.0
  Ni  Ni369  1  0.22225233  0.27779283  0.22879070  1.0
  Ni  Ni370  1  0.22225233  0.61112617  0.22879070  1.0
  Ni  Ni371  1  0.22225233  0.94445950  0.22879070  1.0
  Ni  Ni372  1  0.55558567  0.27779283  0.22879070  1.0
  Ni  Ni373  1  0.55558567  0.61112617  0.22879070  1.0
  Ni  Ni374  1  0.55558567  0.94445950  0.22879070  1.0
  Ni  Ni375  1  0.88891900  0.27779283  0.22879070  1.0
  Ni  Ni376  1  0.88891900  0.61112617  0.22879070  1.0
  Ni  Ni377  1  0.88891900  0.94445950  0.22879070  1.0
  Ni  Ni378  1  0.19403933  0.09701967  0.38623660  1.0
  Ni  Ni379  1  0.19403933  0.43035300  0.38623660  1.0
  Ni  Ni380  1  0.19403933  0.76368633  0.38623660  1.0
  Ni  Ni381  1  0.52737267  0.09701967  0.38623660  1.0
  Ni  Ni382  1  0.52737267  0.43035300  0.38623660  1.0
  Ni  Ni383  1  0.52737267  0.76368633  0.38623660  1.0
  Ni  Ni384  1  0.86070600  0.09701967  0.38623660  1.0
  Ni  Ni385  1  0.86070600  0.43035300  0.38623660  1.0
  Ni  Ni386  1  0.86070600  0.76368633  0.38623660  1.0
  Ni  Ni387  1  0.19403933  0.26368633  0.28623660  1.0
  Ni  Ni388  1  0.19403933  0.59701967  0.28623660  1.0
  Ni  Ni389  1  0.19403933  0.93035300  0.28623660  1.0
  Ni  Ni390  1  0.52737267  0.26368633  0.28623660  1.0
  Ni  Ni391  1  0.52737267  0.59701967  0.28623660  1.0
  Ni  Ni392  1  0.52737267  0.93035300  0.28623660  1.0
  Ni  Ni393  1  0.86070600  0.26368633  0.28623660  1.0
  Ni  Ni394  1  0.86070600  0.59701967  0.28623660  1.0
  Ni  Ni395  1  0.86070600  0.93035300  0.28623660  1.0
  Ni  Ni396  1  0.11108100  0.05554050  0.36203370  1.0
  Ni  Ni397  1  0.11108100  0.38887383  0.36203370  1.0
  Ni  Ni398  1  0.11108100  0.72220717  0.36203370  1.0
  Ni  Ni399  1  0.44441433  0.05554050  0.36203370  1.0
  Ni  Ni400  1  0.44441433  0.38887383  0.36203370  1.0
  Ni  Ni401  1  0.44441433  0.72220717  0.36203370  1.0
  Ni  Ni402  1  0.77774767  0.05554050  0.36203370  1.0
  Ni  Ni403  1  0.77774767  0.38887383  0.36203370  1.0
  Ni  Ni404  1  0.77774767  0.72220717  0.36203370  1.0
  Ni  Ni405  1  0.11108100  0.22220717  0.26203370  1.0
  Ni  Ni406  1  0.11108100  0.55554050  0.26203370  1.0
  Ni  Ni407  1  0.11108100  0.88887383  0.26203370  1.0
  Ni  Ni408  1  0.44441433  0.22220717  0.26203370  1.0
  Ni  Ni409  1  0.44441433  0.55554050  0.26203370  1.0
  Ni  Ni410  1  0.44441433  0.88887383  0.26203370  1.0
  Ni  Ni411  1  0.77774767  0.22220717  0.26203370  1.0
  Ni  Ni412  1  0.77774767  0.55554050  0.26203370  1.0
  Ni  Ni413  1  0.77774767  0.88887383  0.26203370  1.0
  Ni  Ni414  1  0.13929400  0.15317583  0.25447050  1.0
  Ni  Ni415  1  0.13929400  0.48650917  0.25447050  1.0
  Ni  Ni416  1  0.13929400  0.81984250  0.25447050  1.0
  Ni  Ni417  1  0.47262733  0.15317583  0.25447050  1.0
  Ni  Ni418  1  0.47262733  0.48650917  0.25447050  1.0
  Ni  Ni419  1  0.47262733  0.81984250  0.25447050  1.0
  Ni  Ni420  1  0.80596067  0.15317583  0.25447050  1.0
  Ni  Ni421  1  0.80596067  0.48650917  0.25447050  1.0
  Ni  Ni422  1  0.80596067  0.81984250  0.25447050  1.0
  Ni  Ni423  1  0.13929400  0.31984250  0.35447050  1.0
  Ni  Ni424  1  0.13929400  0.65317583  0.35447050  1.0
  Ni  Ni425  1  0.13929400  0.98650917  0.35447050  1.0
  Ni  Ni426  1  0.47262733  0.31984250  0.35447050  1.0
  Ni  Ni427  1  0.47262733  0.65317583  0.35447050  1.0
  Ni  Ni428  1  0.47262733  0.98650917  0.35447050  1.0
  Ni  Ni429  1  0.80596067  0.31984250  0.35447050  1.0
  Ni  Ni430  1  0.80596067  0.65317583  0.35447050  1.0
  Ni  Ni431  1  0.80596067  0.98650917  0.35447050  1.0
