# generated using pymatgen
data_YNi5
_symmetry_space_group_name_H-M   'P 1'
_cell_length_a   25.36908965
_cell_length_b   27.82169447
_cell_length_c   58.58740296
_cell_angle_alpha   121.76619783
_cell_angle_beta   150.00000000
_cell_angle_gamma   62.87567551
_symmetry_Int_Tables_number   1
_chemical_formula_structural   YNi5
_chemical_formula_sum   'Y90 Ni450'
_cell_volume   17578.65178336
_cell_formula_units_Z   90
loop_
 _symmetry_equiv_pos_site_id
 _symmetry_equiv_pos_as_xyz
  1  'x, y, z'
loop_
 _atom_site_type_symbol
 _atom_site_label
 _atom_site_symmetry_multiplicity
 _atom_site_fract_x
 _atom_site_fract_y
 _atom_site_fract_z
 _atom_site_occupancy
  Y  Y0  1  0.00000000  0.00000000  0.07291667  1.0
  Y  Y1  1  0.00000000  0.33333333  0.07291667  1.0
  Y  Y2  1  0.00000000  0.66666667  0.07291667  1.0
  Y  Y3  1  0.33333333  0.00000000  0.07291667  1.0
  Y  Y4  1  0.33333333  0.33333333  0.07291667  1.0
  Y  Y5  1  0.33333333  0.66666667  0.07291667  1.0
  Y  Y6  1  0.66666667  0.00000000  0.07291667  1.0
  Y  Y7  1  0.66666667  0.33333333  0.07291667  1.0
  Y  Y8  1  0.66666667  0.66666667  0.07291667  1.0
  Y  Y9  1  0.00000000  0.16666667  0.03125000  1.0
  Y  Y10  1  0.00000000  0.50000000  0.03125000  1.0
  Y  Y11  1  0.00000000  0.83333333  0.03125000  1.0
  Y  Y12  1  0.33333333  0.16666667  0.03125000  1.0
  Y  Y13  1  0.33333333  0.50000000  0.03125000  1.0
  Y  Y14  1  0.33333333  0.83333333  0.03125000  1.0
  Y  Y15  1  0.66666667  0.16666667  0.03125000  1.0
  Y  Y16  1  0.66666667  0.50000000  0.03125000  1.0
  Y  Y17  1  0.66666667  0.83333333  0.03125000  1.0
  Ni  Ni18  1  0.22222222  0.00000000  0.07291667  1.0
  Ni  Ni19  1  0.22222222  0.33333333  0.07291667  1.0
  Ni  Ni20  1  0.22222222  0.66666667  0.07291667  1.0
  Ni  Ni21  1  0.55555556  0.00000000  0.07291667  1.0
  Ni  Ni22  1  0.55555556  0.33333333  0.07291667  1.0
  Ni  Ni23  1  0.55555556  0.66666667  0.07291667  1.0
  Ni  Ni24  1  0.88888889  0.00000000  0.07291667  1.0
  Ni  Ni25  1  0.88888889  0.33333333  0.07291667  1.0
  Ni  Ni26  1  0.88888889  0.66666667  0.07291667  1.0
  Ni  Ni27  1  0.22222222  0.16666667  0.03125000  1.0
  Ni  Ni28  1  0.22222222  0.50000000  0.03125000  1.0
  Ni  Ni29  1  0.22222222  0.83333333  0.03125000  1.0
  Ni  Ni30  1  0.55555556  0.16666667  0.03125000  1.0
  Ni  Ni31  1  0.55555556  0.50000000  0.03125000  1.0
  Ni  Ni32  1  0.55555556  0.83333333  0.03125000  1.0
  Ni  Ni33  1  0.88888889  0.16666667  0.03125000  1.0
  Ni  Ni34  1  0.88888889  0.50000000  0.03125000  1.0
  Ni  Ni35  1  0.88888889  0.83333333  0.03125000  1.0
  Ni  Ni36  1  0.11111111  0.00000000  0.07291667  1.0
  Ni  Ni37  1  0.11111111  0.33333333  0.07291667  1.0
  Ni  Ni38  1  0.11111111  0.66666667  0.07291667  1.0
  Ni  Ni39  1  0.44444444  0.00000000  0.07291667  1.0
  Ni  Ni40  1  0.44444444  0.33333333  0.07291667  1.0
  Ni  Ni41  1  0.44444444  0.66666667  0.07291667  1.0
  Ni  Ni42  1  0.77777778  0.00000000  0.07291667  1.0
  Ni  Ni43  1  0.77777778  0.33333333  0.07291667  1.0
  Ni  Ni44  1  0.77777778  0.66666667  0.07291667  1.0
  Ni  Ni45  1  0.11111111  0.16666667  0.03125000  1.0
  Ni  Ni46  1  0.11111111  0.50000000  0.03125000  1.0
  Ni  Ni47  1  0.11111111  0.83333333  0.03125000  1.0
  Ni  Ni48  1  0.44444444  0.16666667  0.03125000  1.0
  Ni  Ni49  1  0.44444444  0.50000000  0.03125000  1.0
  Ni  Ni50  1  0.44444444  0.83333333  0.03125000  1.0
  Ni  Ni51  1  0.77777778  0.16666667  0.03125000  1.0
  Ni  Ni52  1  0.77777778  0.50000000  0.03125000  1.0
  Ni  Ni53  1  0.77777778  0.83333333  0.03125000  1.0
  Ni  Ni54  1  0.00000000  0.08333333  0.05208333  1.0
  Ni  Ni55  1  0.00000000  0.41666667  0.05208333  1.0
  Ni  Ni56  1  0.00000000  0.75000000  0.05208333  1.0
  Ni  Ni57  1  0.33333333  0.08333333  0.05208333  1.0
  Ni  Ni58  1  0.33333333  0.41666667  0.05208333  1.0
  Ni  Ni59  1  0.33333333  0.75000000  0.05208333  1.0
  Ni  Ni60  1  0.66666667  0.08333333  0.05208333  1.0
  Ni  Ni61  1  0.66666667  0.41666667  0.05208333  1.0
  Ni  Ni62  1  0.66666667  0.75000000  0.05208333  1.0
  Ni  Ni63  1  0.00000000  0.25000000  0.01041667  1.0
  Ni  Ni64  1  0.00000000  0.58333333  0.01041667  1.0
  Ni  Ni65  1  0.00000000  0.91666667  0.01041667  1.0
  Ni  Ni66  1  0.33333333  0.25000000  0.01041667  1.0
  Ni  Ni67  1  0.33333333  0.58333333  0.01041667  1.0
  Ni  Ni68  1  0.33333333  0.91666667  0.01041667  1.0
  Ni  Ni69  1  0.66666667  0.25000000  0.01041667  1.0
  Ni  Ni70  1  0.66666667  0.58333333  0.01041667  1.0
  Ni  Ni71  1  0.66666667  0.91666667  0.01041667  1.0
  Ni  Ni72  1  0.16666667  0.08333333  0.05208333  1.0
  Ni  Ni73  1  0.16666667  0.41666667  0.05208333  1.0
  Ni  Ni74  1  0.16666667  0.75000000  0.05208333  1.0
  Ni  Ni75  1  0.50000000  0.08333333  0.05208333  1.0
  Ni  Ni76  1  0.50000000  0.41666667  0.05208333  1.0
  Ni  Ni77  1  0.50000000  0.75000000  0.05208333  1.0
  Ni  Ni78  1  0.83333333  0.08333333  0.05208333  1.0
  Ni  Ni79  1  0.83333333  0.41666667  0.05208333  1.0
  Ni  Ni80  1  0.83333333  0.75000000  0.05208333  1.0
  Ni  Ni81  1  0.16666667  0.25000000  0.01041667  1.0
  Ni  Ni82  1  0.16666667  0.58333333  0.01041667  1.0
  Ni  Ni83  1  0.16666667  0.91666667  0.01041667  1.0
  Ni  Ni84  1  0.50000000  0.25000000  0.01041667  1.0
  Ni  Ni85  1  0.50000000  0.58333333  0.01041667  1.0
  Ni  Ni86  1  0.50000000  0.91666667  0.01041667  1.0
  Ni  Ni87  1  0.83333333  0.25000000  0.01041667  1.0
  Ni  Ni88  1  0.83333333  0.58333333  0.01041667  1.0
  Ni  Ni89  1  0.83333333  0.91666667  0.01041667  1.0
  Ni  Ni90  1  0.16666667  0.08333333  0.01041667  1.0
  Ni  Ni91  1  0.16666667  0.41666667  0.01041667  1.0
  Ni  Ni92  1  0.16666667  0.75000000  0.01041667  1.0
  Ni  Ni93  1  0.50000000  0.08333333  0.01041667  1.0
  Ni  Ni94  1  0.50000000  0.41666667  0.01041667  1.0
  Ni  Ni95  1  0.50000000  0.75000000  0.01041667  1.0
  Ni  Ni96  1  0.83333333  0.08333333  0.01041667  1.0
  Ni  Ni97  1  0.83333333  0.41666667  0.01041667  1.0
  Ni  Ni98  1  0.83333333  0.75000000  0.01041667  1.0
  Ni  Ni99  1  0.16666667  0.25000000  0.05208333  1.0
  Ni  Ni100  1  0.16666667  0.58333333  0.05208333  1.0
  Ni  Ni101  1  0.16666667  0.91666667  0.05208333  1.0
  Ni  Ni102  1  0.50000000  0.25000000  0.05208333  1.0
  Ni  Ni103  1  0.50000000  0.58333333  0.05208333  1.0
  Ni  Ni104  1  0.50000000  0.91666667  0.05208333  1.0
  Ni  Ni105  1  0.83333333  0.25000000  0.05208333  1.0
  Ni  Ni106  1  0.83333333  0.58333333  0.05208333  1.0
  Ni  Ni107  1  0.83333333  0.91666667  0.05208333  1.0
  Y  Y108  1  0.00000000  0.00000000  0.15625000  1.0
  Y  Y109  1  0.00000000  0.33333333  0.15625000  1.0
  Y  Y110  1  0.00000000  0.66666667  0.15625000  1.0
  Y  Y111  1  0.33333333  0.00000000  0.15625000  1.0
  Y  Y112  1  0.33333333  0.33333333  0.15625000  1.0
  Y  Y113  1  0.33333333  0.66666667  0.15625000  1.0
  Y  Y114  1  0.66666667  0.00000000  0.15625000  1.0
  Y  Y115  1  0.66666667  0.33333333  0.15625000  1.0
  Y  Y116  1  0.66666667  0.66666667  0.15625000  1.0
  Y  Y117  1  0.00000000  0.16666667  0.11458333  1.0
  Y  Y118  1  0.00000000  0.50000000  0.11458333  1.0
  Y  Y119  1  0.00000000  0.83333333  0.11458333  1.0
  Y  Y120  1  0.33333333  0.16666667  0.11458333  1.0
  Y  Y121  1  0.33333333  0.50000000  0.11458333  1.0
  Y  Y122  1  0.33333333  0.83333333  0.11458333  1.0
  Y  Y123  1  0.66666667  0.16666667  0.11458333  1.0
  Y  Y124  1  0.66666667  0.50000000  0.11458333  1.0
  Y  Y125  1  0.66666667  0.83333333  0.11458333  1.0
  Ni  Ni126  1  0.22222222  0.00000000  0.15625000  1.0
  Ni  Ni127  1  0.22222222  0.33333333  0.15625000  1.0
  Ni  Ni128  1  0.22222222  0.66666667  0.15625000  1.0
  Ni  Ni129  1  0.55555556  0.00000000  0.15625000  1.0
  Ni  Ni130  1  0.55555556  0.33333333  0.15625000  1.0
  Ni  Ni131  1  0.55555556  0.66666667  0.15625000  1.0
  Ni  Ni132  1  0.88888889  0.00000000  0.15625000  1.0
  Ni  Ni133  1  0.88888889  0.33333333  0.15625000  1.0
  Ni  Ni134  1  0.88888889  0.66666667  0.15625000  1.0
  Ni  Ni135  1  0.22222222  0.16666667  0.11458333  1.0
  Ni  Ni136  1  0.22222222  0.50000000  0.11458333  1.0
  Ni  Ni137  1  0.22222222  0.83333333  0.11458333  1.0
  Ni  Ni138  1  0.55555556  0.16666667  0.11458333  1.0
  Ni  Ni139  1  0.55555556  0.50000000  0.11458333  1.0
  Ni  Ni140  1  0.55555556  0.83333333  0.11458333  1.0
  Ni  Ni141  1  0.88888889  0.16666667  0.11458333  1.0
  Ni  Ni142  1  0.88888889  0.50000000  0.11458333  1.0
  Ni  Ni143  1  0.88888889  0.83333333  0.11458333  1.0
  Ni  Ni144  1  0.11111111  0.00000000  0.15625000  1.0
  Ni  Ni145  1  0.11111111  0.33333333  0.15625000  1.0
  Ni  Ni146  1  0.11111111  0.66666667  0.15625000  1.0
  Ni  Ni147  1  0.44444444  0.00000000  0.15625000  1.0
  Ni  Ni148  1  0.44444444  0.33333333  0.15625000  1.0
  Ni  Ni149  1  0.44444444  0.66666667  0.15625000  1.0
  Ni  Ni150  1  0.77777778  0.00000000  0.15625000  1.0
  Ni  Ni151  1  0.77777778  0.33333333  0.15625000  1.0
  Ni  Ni152  1  0.77777778  0.66666667  0.15625000  1.0
  Ni  Ni153  1  0.11111111  0.16666667  0.11458333  1.0
  Ni  Ni154  1  0.11111111  0.50000000  0.11458333  1.0
  Ni  Ni155  1  0.11111111  0.83333333  0.11458333  1.0
  Ni  Ni156  1  0.44444444  0.16666667  0.11458333  1.0
  Ni  Ni157  1  0.44444444  0.50000000  0.11458333  1.0
  Ni  Ni158  1  0.44444444  0.83333333  0.11458333  1.0
  Ni  Ni159  1  0.77777778  0.16666667  0.11458333  1.0
  Ni  Ni160  1  0.77777778  0.50000000  0.11458333  1.0
  Ni  Ni161  1  0.77777778  0.83333333  0.11458333  1.0
  Ni  Ni162  1  0.00000000  0.08333333  0.13541667  1.0
  Ni  Ni163  1  0.00000000  0.41666667  0.13541667  1.0
  Ni  Ni164  1  0.00000000  0.75000000  0.13541667  1.0
  Ni  Ni165  1  0.33333333  0.08333333  0.13541667  1.0
  Ni  Ni166  1  0.33333333  0.41666667  0.13541667  1.0
  Ni  Ni167  1  0.33333333  0.75000000  0.13541667  1.0
  Ni  Ni168  1  0.66666667  0.08333333  0.13541667  1.0
  Ni  Ni169  1  0.66666667  0.41666667  0.13541667  1.0
  Ni  Ni170  1  0.66666667  0.75000000  0.13541667  1.0
  Ni  Ni171  1  0.00000000  0.25000000  0.09375000  1.0
  Ni  Ni172  1  0.00000000  0.58333333  0.09375000  1.0
  Ni  Ni173  1  0.00000000  0.91666667  0.09375000  1.0
  Ni  Ni174  1  0.33333333  0.25000000  0.09375000  1.0
  Ni  Ni175  1  0.33333333  0.58333333  0.09375000  1.0
  Ni  Ni176  1  0.33333333  0.91666667  0.09375000  1.0
  Ni  Ni177  1  0.66666667  0.25000000  0.09375000  1.0
  Ni  Ni178  1  0.66666667  0.58333333  0.09375000  1.0
  Ni  Ni179  1  0.66666667  0.91666667  0.09375000  1.0
  Ni  Ni180  1  0.16666667  0.08333333  0.13541667  1.0
  Ni  Ni181  1  0.16666667  0.41666667  0.13541667  1.0
  Ni  Ni182  1  0.16666667  0.75000000  0.13541667  1.0
  Ni  Ni183  1  0.50000000  0.08333333  0.13541667  1.0
  Ni  Ni184  1  0.50000000  0.41666667  0.13541667  1.0
  Ni  Ni185  1  0.50000000  0.75000000  0.13541667  1.0
  Ni  Ni186  1  0.83333333  0.08333333  0.13541667  1.0
  Ni  Ni187  1  0.83333333  0.41666667  0.13541667  1.0
  Ni  Ni188  1  0.83333333  0.75000000  0.13541667  1.0
  Ni  Ni189  1  0.16666667  0.25000000  0.09375000  1.0
  Ni  Ni190  1  0.16666667  0.58333333  0.09375000  1.0
  Ni  Ni191  1  0.16666667  0.91666667  0.09375000  1.0
  Ni  Ni192  1  0.50000000  0.25000000  0.09375000  1.0
  Ni  Ni193  1  0.50000000  0.58333333  0.09375000  1.0
  Ni  Ni194  1  0.50000000  0.91666667  0.09375000  1.0
  Ni  Ni195  1  0.83333333  0.25000000  0.09375000  1.0
  Ni  Ni196  1  0.83333333  0.58333333  0.09375000  1.0
  Ni  Ni197  1  0.83333333  0.91666667  0.09375000  1.0
  Ni  Ni198  1  0.16666667  0.08333333  0.09375000  1.0
  Ni  Ni199  1  0.16666667  0.41666667  0.09375000  1.0
  Ni  Ni200  1  0.16666667  0.75000000  0.09375000  1.0
  Ni  Ni201  1  0.50000000  0.08333333  0.09375000  1.0
  Ni  Ni202  1  0.50000000  0.41666667  0.09375000  1.0
  Ni  Ni203  1  0.50000000  0.75000000  0.09375000  1.0
  Ni  Ni204  1  0.83333333  0.08333333  0.09375000  1.0
  Ni  Ni205  1  0.83333333  0.41666667  0.09375000  1.0
  Ni  Ni206  1  0.83333333  0.75000000  0.09375000  1.0
  Ni  Ni207  1  0.16666667  0.25000000  0.13541667  1.0
  Ni  Ni208  1  0.16666667  0.58333333  0.13541667  1.0
  Ni  Ni209  1  0.16666667  0.91666667  0.13541667  1.0
  Ni  Ni210  1  0.50000000  0.25000000  0.13541667  1.0
  Ni  Ni211  1  0.50000000  0.58333333  0.13541667  1.0
  Ni  Ni212  1  0.50000000  0.91666667  0.13541667  1.0
  Ni  Ni213  1  0.83333333  0.25000000  0.13541667  1.0
  Ni  Ni214  1  0.83333333  0.58333333  0.13541667  1.0
  Ni  Ni215  1  0.83333333  0.91666667  0.13541667  1.0
  Y  Y216  1  0.00000000  0.00000000  0.23958333  1.0
  Y  Y217  1  0.00000000  0.33333333  0.23958333  1.0
  Y  Y218  1  0.00000000  0.66666667  0.23958333  1.0
  Y  Y219  1  0.33333333  0.00000000  0.23958333  1.0
  Y  Y220  1  0.33333333  0.33333333  0.23958333  1.0
  Y  Y221  1  0.33333333  0.66666667  0.23958333  1.0
  Y  Y222  1  0.66666667  0.00000000  0.23958333  1.0
  Y  Y223  1  0.66666667  0.33333333  0.23958333  1.0
  Y  Y224  1  0.66666667  0.66666667  0.23958333  1.0
  Y  Y225  1  0.00000000  0.16666667  0.19791667  1.0
  Y  Y226  1  0.00000000  0.50000000  0.19791667  1.0
  Y  Y227  1  0.00000000  0.83333333  0.19791667  1.0
  Y  Y228  1  0.33333333  0.16666667  0.19791667  1.0
  Y  Y229  1  0.33333333  0.50000000  0.19791667  1.0
  Y  Y230  1  0.33333333  0.83333333  0.19791667  1.0
  Y  Y231  1  0.66666667  0.16666667  0.19791667  1.0
  Y  Y232  1  0.66666667  0.50000000  0.19791667  1.0
  Y  Y233  1  0.66666667  0.83333333  0.19791667  1.0
  Ni  Ni234  1  0.22222222  0.00000000  0.23958333  1.0
  Ni  Ni235  1  0.22222222  0.33333333  0.23958333  1.0
  Ni  Ni236  1  0.22222222  0.66666667  0.23958333  1.0
  Ni  Ni237  1  0.55555556  0.00000000  0.23958333  1.0
  Ni  Ni238  1  0.55555556  0.33333333  0.23958333  1.0
  Ni  Ni239  1  0.55555556  0.66666667  0.23958333  1.0
  Ni  Ni240  1  0.88888889  0.00000000  0.23958333  1.0
  Ni  Ni241  1  0.88888889  0.33333333  0.23958333  1.0
  Ni  Ni242  1  0.88888889  0.66666667  0.23958333  1.0
  Ni  Ni243  1  0.22222222  0.16666667  0.19791667  1.0
  Ni  Ni244  1  0.22222222  0.50000000  0.19791667  1.0
  Ni  Ni245  1  0.22222222  0.83333333  0.19791667  1.0
  Ni  Ni246  1  0.55555556  0.16666667  0.19791667  1.0
  Ni  Ni247  1  0.55555556  0.50000000  0.19791667  1.0
  Ni  Ni248  1  0.55555556  0.83333333  0.19791667  1.0
  Ni  Ni249  1  0.88888889  0.16666667  0.19791667  1.0
  Ni  Ni250  1  0.88888889  0.50000000  0.19791667  1.0
  Ni  Ni251  1  0.88888889  0.83333333  0.19791667  1.0
  Ni  Ni252  1  0.11111111  0.00000000  0.23958333  1.0
  Ni  Ni253  1  0.11111111  0.33333333  0.23958333  1.0
  Ni  Ni254  1  0.11111111  0.66666667  0.23958333  1.0
  Ni  Ni255  1  0.44444444  0.00000000  0.23958333  1.0
  Ni  Ni256  1  0.44444444  0.33333333  0.23958333  1.0
  Ni  Ni257  1  0.44444444  0.66666667  0.23958333  1.0
  Ni  Ni258  1  0.77777778  0.00000000  0.23958333  1.0
  Ni  Ni259  1  0.77777778  0.33333333  0.23958333  1.0
  Ni  Ni260  1  0.77777778  0.66666667  0.23958333  1.0
  Ni  Ni261  1  0.11111111  0.16666667  0.19791667  1.0
  Ni  Ni262  1  0.11111111  0.50000000  0.19791667  1.0
  Ni  Ni263  1  0.11111111  0.83333333  0.19791667  1.0
  Ni  Ni264  1  0.44444444  0.16666667  0.19791667  1.0
  Ni  Ni265  1  0.44444444  0.50000000  0.19791667  1.0
  Ni  Ni266  1  0.44444444  0.83333333  0.19791667  1.0
  Ni  Ni267  1  0.77777778  0.16666667  0.19791667  1.0
  Ni  Ni268  1  0.77777778  0.50000000  0.19791667  1.0
  Ni  Ni269  1  0.77777778  0.83333333  0.19791667  1.0
  Ni  Ni270  1  0.00000000  0.08333333  0.21875000  1.0
  Ni  Ni271  1  0.00000000  0.41666667  0.21875000  1.0
  Ni  Ni272  1  0.00000000  0.75000000  0.21875000  1.0
  Ni  Ni273  1  0.33333333  0.08333333  0.21875000  1.0
  Ni  Ni274  1  0.33333333  0.41666667  0.21875000  1.0
  Ni  Ni275  1  0.33333333  0.75000000  0.21875000  1.0
  Ni  Ni276  1  0.66666667  0.08333333  0.21875000  1.0
  Ni  Ni277  1  0.66666667  0.41666667  0.21875000  1.0
  Ni  Ni278  1  0.66666667  0.75000000  0.21875000  1.0
  Ni  Ni279  1  0.00000000  0.25000000  0.17708333  1.0
  Ni  Ni280  1  0.00000000  0.58333333  0.17708333  1.0
  Ni  Ni281  1  0.00000000  0.91666667  0.17708333  1.0
  Ni  Ni282  1  0.33333333  0.25000000  0.17708333  1.0
  Ni  Ni283  1  0.33333333  0.58333333  0.17708333  1.0
  Ni  Ni284  1  0.33333333  0.91666667  0.17708333  1.0
  Ni  Ni285  1  0.66666667  0.25000000  0.17708333  1.0
  Ni  Ni286  1  0.66666667  0.58333333  0.17708333  1.0
  Ni  Ni287  1  0.66666667  0.91666667  0.17708333  1.0
  Ni  Ni288  1  0.16666667  0.08333333  0.21875000  1.0
  Ni  Ni289  1  0.16666667  0.41666667  0.21875000  1.0
  Ni  Ni290  1  0.16666667  0.75000000  0.21875000  1.0
  Ni  Ni291  1  0.50000000  0.08333333  0.21875000  1.0
  Ni  Ni292  1  0.50000000  0.41666667  0.21875000  1.0
  Ni  Ni293  1  0.50000000  0.75000000  0.21875000  1.0
  Ni  Ni294  1  0.83333333  0.08333333  0.21875000  1.0
  Ni  Ni295  1  0.83333333  0.41666667  0.21875000  1.0
  Ni  Ni296  1  0.83333333  0.75000000  0.21875000  1.0
  Ni  Ni297  1  0.16666667  0.25000000  0.17708333  1.0
  Ni  Ni298  1  0.16666667  0.58333333  0.17708333  1.0
  Ni  Ni299  1  0.16666667  0.91666667  0.17708333  1.0
  Ni  Ni300  1  0.50000000  0.25000000  0.17708333  1.0
  Ni  Ni301  1  0.50000000  0.58333333  0.17708333  1.0
  Ni  Ni302  1  0.50000000  0.91666667  0.17708333  1.0
  Ni  Ni303  1  0.83333333  0.25000000  0.17708333  1.0
  Ni  Ni304  1  0.83333333  0.58333333  0.17708333  1.0
  Ni  Ni305  1  0.83333333  0.91666667  0.17708333  1.0
  Ni  Ni306  1  0.16666667  0.08333333  0.17708333  1.0
  Ni  Ni307  1  0.16666667  0.41666667  0.17708333  1.0
  Ni  Ni308  1  0.16666667  0.75000000  0.17708333  1.0
  Ni  Ni309  1  0.50000000  0.08333333  0.17708333  1.0
  Ni  Ni310  1  0.50000000  0.41666667  0.17708333  1.0
  Ni  Ni311  1  0.50000000  0.75000000  0.17708333  1.0
  Ni  Ni312  1  0.83333333  0.08333333  0.17708333  1.0
  Ni  Ni313  1  0.83333333  0.41666667  0.17708333  1.0
  Ni  Ni314  1  0.83333333  0.75000000  0.17708333  1.0
  Ni  Ni315  1  0.16666667  0.25000000  0.21875000  1.0
  Ni  Ni316  1  0.16666667  0.58333333  0.21875000  1.0
  Ni  Ni317  1  0.16666667  0.91666667  0.21875000  1.0
  Ni  Ni318  1  0.50000000  0.25000000  0.21875000  1.0
  Ni  Ni319  1  0.50000000  0.58333333  0.21875000  1.0
  Ni  Ni320  1  0.50000000  0.91666667  0.21875000  1.0
  Ni  Ni321  1  0.83333333  0.25000000  0.21875000  1.0
  Ni  Ni322  1  0.83333333  0.58333333  0.21875000  1.0
  Ni  Ni323  1  0.83333333  0.91666667  0.21875000  1.0
  Y  Y324  1  0.00000000  0.00000000  0.32291667  1.0
  Y  Y325  1  0.00000000  0.33333333  0.32291667  1.0
  Y  Y326  1  0.00000000  0.66666667  0.32291667  1.0
  Y  Y327  1  0.33333333  0.00000000  0.32291667  1.0
  Y  Y328  1  0.33333333  0.33333333  0.32291667  1.0
  Y  Y329  1  0.33333333  0.66666667  0.32291667  1.0
  Y  Y330  1  0.66666667  0.00000000  0.32291667  1.0
  Y  Y331  1  0.66666667  0.33333333  0.32291667  1.0
  Y  Y332  1  0.66666667  0.66666667  0.32291667  1.0
  Y  Y333  1  0.00000000  0.16666667  0.28125000  1.0
  Y  Y334  1  0.00000000  0.50000000  0.28125000  1.0
  Y  Y335  1  0.00000000  0.83333333  0.28125000  1.0
  Y  Y336  1  0.33333333  0.16666667  0.28125000  1.0
  Y  Y337  1  0.33333333  0.50000000  0.28125000  1.0
  Y  Y338  1  0.33333333  0.83333333  0.28125000  1.0
  Y  Y339  1  0.66666667  0.16666667  0.28125000  1.0
  Y  Y340  1  0.66666667  0.50000000  0.28125000  1.0
  Y  Y341  1  0.66666667  0.83333333  0.28125000  1.0
  Ni  Ni342  1  0.22222222  0.00000000  0.32291667  1.0
  Ni  Ni343  1  0.22222222  0.33333333  0.32291667  1.0
  Ni  Ni344  1  0.22222222  0.66666667  0.32291667  1.0
  Ni  Ni345  1  0.55555556  0.00000000  0.32291667  1.0
  Ni  Ni346  1  0.55555556  0.33333333  0.32291667  1.0
  Ni  Ni347  1  0.55555556  0.66666667  0.32291667  1.0
  Ni  Ni348  1  0.88888889  0.00000000  0.32291667  1.0
  Ni  Ni349  1  0.88888889  0.33333333  0.32291667  1.0
  Ni  Ni350  1  0.88888889  0.66666667  0.32291667  1.0
  Ni  Ni351  1  0.22222222  0.16666667  0.28125000  1.0
  Ni  Ni352  1  0.22222222  0.50000000  0.28125000  1.0
  Ni  Ni353  1  0.22222222  0.83333333  0.28125000  1.0
  Ni  Ni354  1  0.55555556  0.16666667  0.28125000  1.0
  Ni  Ni355  1  0.55555556  0.50000000  0.28125000  1.0
  Ni  Ni356  1  0.55555556  0.83333333  0.28125000  1.0
  Ni  Ni357  1  0.88888889  0.16666667  0.28125000  1.0
  Ni  Ni358  1  0.88888889  0.50000000  0.28125000  1.0
  Ni  Ni359  1  0.88888889  0.83333333  0.28125000  1.0
  Ni  Ni360  1  0.11111111  0.00000000  0.32291667  1.0
  Ni  Ni361  1  0.11111111  0.33333333  0.32291667  1.0
  Ni  Ni362  1  0.11111111  0.66666667  0.32291667  1.0
  Ni  Ni363  1  0.44444444  0.00000000  0.32291667  1.0
  Ni  Ni364  1  0.44444444  0.33333333  0.32291667  1.0
  Ni  Ni365  1  0.44444444  0.66666667  0.32291667  1.0
  Ni  Ni366  1  0.77777778  0.00000000  0.32291667  1.0
  Ni  Ni367  1  0.77777778  0.33333333  0.32291667  1.0
  Ni  Ni368  1  0.77777778  0.66666667  0.32291667  1.0
  Ni  Ni369  1  0.11111111  0.16666667  0.28125000  1.0
  Ni  Ni370  1  0.11111111  0.50000000  0.28125000  1.0
  Ni  Ni371  1  0.11111111  0.83333333  0.28125000  1.0
  Ni  Ni372  1  0.44444444  0.16666667  0.28125000  1.0
  Ni  Ni373  1  0.44444444  0.50000000  0.28125000  1.0
  Ni  Ni374  1  0.44444444  0.83333333  0.28125000  1.0
  Ni  Ni375  1  0.77777778  0.16666667  0.28125000  1.0
  Ni  Ni376  1  0.77777778  0.50000000  0.28125000  1.0
  Ni  Ni377  1  0.77777778  0.83333333  0.28125000  1.0
  Ni  Ni378  1  0.00000000  0.08333333  0.30208333  1.0
  Ni  Ni379  1  0.00000000  0.41666667  0.30208333  1.0
  Ni  Ni380  1  0.00000000  0.75000000  0.30208333  1.0
  Ni  Ni381  1  0.33333333  0.08333333  0.30208333  1.0
  Ni  Ni382  1  0.33333333  0.41666667  0.30208333  1.0
  Ni  Ni383  1  0.33333333  0.75000000  0.30208333  1.0
  Ni  Ni384  1  0.66666667  0.08333333  0.30208333  1.0
  Ni  Ni385  1  0.66666667  0.41666667  0.30208333  1.0
  Ni  Ni386  1  0.66666667  0.75000000  0.30208333  1.0
  Ni  Ni387  1  0.00000000  0.25000000  0.26041667  1.0
  Ni  Ni388  1  0.00000000  0.58333333  0.26041667  1.0
  Ni  Ni389  1  0.00000000  0.91666667  0.26041667  1.0
  Ni  Ni390  1  0.33333333  0.25000000  0.26041667  1.0
  Ni  Ni391  1  0.33333333  0.58333333  0.26041667  1.0
  Ni  Ni392  1  0.33333333  0.91666667  0.26041667  1.0
  Ni  Ni393  1  0.66666667  0.25000000  0.26041667  1.0
  Ni  Ni394  1  0.66666667  0.58333333  0.26041667  1.0
  Ni  Ni395  1  0.66666667  0.91666667  0.26041667  1.0
  Ni  Ni396  1  0.16666667  0.08333333  0.30208333  1.0
  Ni  Ni397  1  0.16666667  0.41666667  0.30208333  1.0
  Ni  Ni398  1  0.16666667  0.75000000  0.30208333  1.0
  Ni  Ni399  1  0.50000000  0.08333333  0.30208333  1.0
  Ni  Ni400  1  0.50000000  0.41666667  0.30208333  1.0
  Ni  Ni401  1  0.50000000  0.75000000  0.30208333  1.0
  Ni  Ni402  1  0.83333333  0.08333333  0.30208333  1.0
  Ni  Ni403  1  0.83333333  0.41666667  0.30208333  1.0
  Ni  Ni404  1  0.83333333  0.75000000  0.30208333  1.0
  Ni  Ni405  1  0.16666667  0.25000000  0.26041667  1.0
  Ni  Ni406  1  0.16666667  0.58333333  0.26041667  1.0
  Ni  Ni407  1  0.16666667  0.91666667  0.26041667  1.0
  Ni  Ni408  1  0.50000000  0.25000000  0.26041667  1.0
  Ni  Ni409  1  0.50000000  0.58333333  0.26041667  1.0
  Ni  Ni410  1  0.50000000  0.91666667  0.26041667  1.0
  Ni  Ni411  1  0.83333333  0.25000000  0.26041667  1.0
  Ni  Ni412  1  0.83333333  0.58333333  0.26041667  1.0
  Ni  Ni413  1  0.83333333  0.91666667  0.26041667  1.0
  Ni  Ni414  1  0.16666667  0.08333333  0.26041667  1.0
  Ni  Ni415  1  0.16666667  0.41666667  0.26041667  1.0
  Ni  Ni416  1  0.16666667  0.75000000  0.26041667  1.0
  Ni  Ni417  1  0.50000000  0.08333333  0.26041667  1.0
  Ni  Ni418  1  0.50000000  0.41666667  0.26041667  1.0
  Ni  Ni419  1  0.50000000  0.75000000  0.26041667  1.0
  Ni  Ni420  1  0.83333333  0.08333333  0.26041667  1.0
  Ni  Ni421  1  0.83333333  0.41666667  0.26041667  1.0
  Ni  Ni422  1  0.83333333  0.75000000  0.26041667  1.0
  Ni  Ni423  1  0.16666667  0.25000000  0.30208333  1.0
  Ni  Ni424  1  0.16666667  0.58333333  0.30208333  1.0
  Ni  Ni425  1  0.16666667  0.91666667  0.30208333  1.0
  Ni  Ni426  1  0.50000000  0.25000000  0.30208333  1.0
  Ni  Ni427  1  0.50000000  0.58333333  0.30208333  1.0
  Ni  Ni428  1  0.50000000  0.91666667  0.30208333  1.0
  Ni  Ni429  1  0.83333333  0.25000000  0.30208333  1.0
  Ni  Ni430  1  0.83333333  0.58333333  0.30208333  1.0
  Ni  Ni431  1  0.83333333  0.91666667  0.30208333  1.0
  Y  Y432  1  0.00000000  0.00000000  0.40625000  1.0
  Y  Y433  1  0.00000000  0.33333333  0.40625000  1.0
  Y  Y434  1  0.00000000  0.66666667  0.40625000  1.0
  Y  Y435  1  0.33333333  0.00000000  0.40625000  1.0
  Y  Y436  1  0.33333333  0.33333333  0.40625000  1.0
  Y  Y437  1  0.33333333  0.66666667  0.40625000  1.0
  Y  Y438  1  0.66666667  0.00000000  0.40625000  1.0
  Y  Y439  1  0.66666667  0.33333333  0.40625000  1.0
  Y  Y440  1  0.66666667  0.66666667  0.40625000  1.0
  Y  Y441  1  0.00000000  0.16666667  0.36458333  1.0
  Y  Y442  1  0.00000000  0.50000000  0.36458333  1.0
  Y  Y443  1  0.00000000  0.83333333  0.36458333  1.0
  Y  Y444  1  0.33333333  0.16666667  0.36458333  1.0
  Y  Y445  1  0.33333333  0.50000000  0.36458333  1.0
  Y  Y446  1  0.33333333  0.83333333  0.36458333  1.0
  Y  Y447  1  0.66666667  0.16666667  0.36458333  1.0
  Y  Y448  1  0.66666667  0.50000000  0.36458333  1.0
  Y  Y449  1  0.66666667  0.83333333  0.36458333  1.0
  Ni  Ni450  1  0.22222222  0.00000000  0.40625000  1.0
  Ni  Ni451  1  0.22222222  0.33333333  0.40625000  1.0
  Ni  Ni452  1  0.22222222  0.66666667  0.40625000  1.0
  Ni  Ni453  1  0.55555556  0.00000000  0.40625000  1.0
  Ni  Ni454  1  0.55555556  0.33333333  0.40625000  1.0
  Ni  Ni455  1  0.55555556  0.66666667  0.40625000  1.0
  Ni  Ni456  1  0.88888889  0.00000000  0.40625000  1.0
  Ni  Ni457  1  0.88888889  0.33333333  0.40625000  1.0
  Ni  Ni458  1  0.88888889  0.66666667  0.40625000  1.0
  Ni  Ni459  1  0.22222222  0.16666667  0.36458333  1.0
  Ni  Ni460  1  0.22222222  0.50000000  0.36458333  1.0
  Ni  Ni461  1  0.22222222  0.83333333  0.36458333  1.0
  Ni  Ni462  1  0.55555556  0.16666667  0.36458333  1.0
  Ni  Ni463  1  0.55555556  0.50000000  0.36458333  1.0
  Ni  Ni464  1  0.55555556  0.83333333  0.36458333  1.0
  Ni  Ni465  1  0.88888889  0.16666667  0.36458333  1.0
  Ni  Ni466  1  0.88888889  0.50000000  0.36458333  1.0
  Ni  Ni467  1  0.88888889  0.83333333  0.36458333  1.0
  Ni  Ni468  1  0.11111111  0.00000000  0.40625000  1.0
  Ni  Ni469  1  0.11111111  0.33333333  0.40625000  1.0
  Ni  Ni470  1  0.11111111  0.66666667  0.40625000  1.0
  Ni  Ni471  1  0.44444444  0.00000000  0.40625000  1.0
  Ni  Ni472  1  0.44444444  0.33333333  0.40625000  1.0
  Ni  Ni473  1  0.44444444  0.66666667  0.40625000  1.0
  Ni  Ni474  1  0.77777778  0.00000000  0.40625000  1.0
  Ni  Ni475  1  0.77777778  0.33333333  0.40625000  1.0
  Ni  Ni476  1  0.77777778  0.66666667  0.40625000  1.0
  Ni  Ni477  1  0.11111111  0.16666667  0.36458333  1.0
  Ni  Ni478  1  0.11111111  0.50000000  0.36458333  1.0
  Ni  Ni479  1  0.11111111  0.83333333  0.36458333  1.0
  Ni  Ni480  1  0.44444444  0.16666667  0.36458333  1.0
  Ni  Ni481  1  0.44444444  0.50000000  0.36458333  1.0
  Ni  Ni482  1  0.44444444  0.83333333  0.36458333  1.0
  Ni  Ni483  1  0.77777778  0.16666667  0.36458333  1.0
  Ni  Ni484  1  0.77777778  0.50000000  0.36458333  1.0
  Ni  Ni485  1  0.77777778  0.83333333  0.36458333  1.0
  Ni  Ni486  1  0.00000000  0.08333333  0.38541667  1.0
  Ni  Ni487  1  0.00000000  0.41666667  0.38541667  1.0
  Ni  Ni488  1  0.00000000  0.75000000  0.38541667  1.0
  Ni  Ni489  1  0.33333333  0.08333333  0.38541667  1.0
  Ni  Ni490  1  0.33333333  0.41666667  0.38541667  1.0
  Ni  Ni491  1  0.33333333  0.75000000  0.38541667  1.0
  Ni  Ni492  1  0.66666667  0.08333333  0.38541667  1.0
  Ni  Ni493  1  0.66666667  0.41666667  0.38541667  1.0
  Ni  Ni494  1  0.66666667  0.75000000  0.38541667  1.0
  Ni  Ni495  1  0.00000000  0.25000000  0.34375000  1.0
  Ni  Ni496  1  0.00000000  0.58333333  0.34375000  1.0
  Ni  Ni497  1  0.00000000  0.91666667  0.34375000  1.0
  Ni  Ni498  1  0.33333333  0.25000000  0.34375000  1.0
  Ni  Ni499  1  0.33333333  0.58333333  0.34375000  1.0
  Ni  Ni500  1  0.33333333  0.91666667  0.34375000  1.0
  Ni  Ni501  1  0.66666667  0.25000000  0.34375000  1.0
  Ni  Ni502  1  0.66666667  0.58333333  0.34375000  1.0
  Ni  Ni503  1  0.66666667  0.91666667  0.34375000  1.0
  Ni  Ni504  1  0.16666667  0.08333333  0.38541667  1.0
  Ni  Ni505  1  0.16666667  0.41666667  0.38541667  1.0
  Ni  Ni506  1  0.16666667  0.75000000  0.38541667  1.0
  Ni  Ni507  1  0.50000000  0.08333333  0.38541667  1.0
  Ni  Ni508  1  0.50000000  0.41666667  0.38541667  1.0
  Ni  Ni509  1  0.50000000  0.75000000  0.38541667  1.0
  Ni  Ni510  1  0.83333333  0.08333333  0.38541667  1.0
  Ni  Ni511  1  0.83333333  0.41666667  0.38541667  1.0
  Ni  Ni512  1  0.83333333  0.75000000  0.38541667  1.0
  Ni  Ni513  1  0.16666667  0.25000000  0.34375000  1.0
  Ni  Ni514  1  0.16666667  0.58333333  0.34375000  1.0
  Ni  Ni515  1  0.16666667  0.91666667  0.34375000  1.0
  Ni  Ni516  1  0.50000000  0.25000000  0.34375000  1.0
  Ni  Ni517  1  0.50000000  0.58333333  0.34375000  1.0
  Ni  Ni518  1  0.50000000  0.91666667  0.34375000  1.0
  Ni  Ni519  1  0.83333333  0.25000000  0.34375000  1.0
  Ni  Ni520  1  0.83333333  0.58333333  0.34375000  1.0
  Ni  Ni521  1  0.83333333  0.91666667  0.34375000  1.0
  Ni  Ni522  1  0.16666667  0.08333333  0.34375000  1.0
  Ni  Ni523  1  0.16666667  0.41666667  0.34375000  1.0
  Ni  Ni524  1  0.16666667  0.75000000  0.34375000  1.0
  Ni  Ni525  1  0.50000000  0.08333333  0.34375000  1.0
  Ni  Ni526  1  0.50000000  0.41666667  0.34375000  1.0
  Ni  Ni527  1  0.50000000  0.75000000  0.34375000  1.0
  Ni  Ni528  1  0.83333333  0.08333333  0.34375000  1.0
  Ni  Ni529  1  0.83333333  0.41666667  0.34375000  1.0
  Ni  Ni530  1  0.83333333  0.75000000  0.34375000  1.0
  Ni  Ni531  1  0.16666667  0.25000000  0.38541667  1.0
  Ni  Ni532  1  0.16666667  0.58333333  0.38541667  1.0
  Ni  Ni533  1  0.16666667  0.91666667  0.38541667  1.0
  Ni  Ni534  1  0.50000000  0.25000000  0.38541667  1.0
  Ni  Ni535  1  0.50000000  0.58333333  0.38541667  1.0
  Ni  Ni536  1  0.50000000  0.91666667  0.38541667  1.0
  Ni  Ni537  1  0.83333333  0.25000000  0.38541667  1.0
  Ni  Ni538  1  0.83333333  0.58333333  0.38541667  1.0
  Ni  Ni539  1  0.83333333  0.91666667  0.38541667  1.0
