# generated using pymatgen
data_YNi5
_symmetry_space_group_name_H-M   'P 1'
_cell_length_a   18.82576289
_cell_length_b   27.82169447
_cell_length_c   29.64484092
_cell_angle_alpha   92.04788693
_cell_angle_beta   90.32247609
_cell_angle_gamma   109.22831143
_symmetry_Int_Tables_number   1
_chemical_formula_structural   YNi5
_chemical_formula_sum   'Y72 Ni360'
_cell_volume   14648.87648613
_cell_formula_units_Z   72
loop_
 _symmetry_equiv_pos_site_id
 _symmetry_equiv_pos_as_xyz
  1  'x, y, z'
loop_
 _atom_site_type_symbol
 _atom_site_label
 _atom_site_symmetry_multiplicity
 _atom_site_fract_x
 _atom_site_fract_y
 _atom_site_fract_z
 _atom_site_occupancy
  Ni  Ni0  1  0.20833333  0.30000000  0.05833333  1.0
  Ni  Ni1  1  0.20833333  0.63333333  0.05833333  1.0
  Ni  Ni2  1  0.20833333  0.96666667  0.05833333  1.0
  Ni  Ni3  1  0.54166667  0.30000000  0.05833333  1.0
  Ni  Ni4  1  0.54166667  0.63333333  0.05833333  1.0
  Ni  Ni5  1  0.54166667  0.96666667  0.05833333  1.0
  Ni  Ni6  1  0.87500000  0.30000000  0.05833333  1.0
  Ni  Ni7  1  0.87500000  0.63333333  0.05833333  1.0
  Ni  Ni8  1  0.87500000  0.96666667  0.05833333  1.0
  Ni  Ni9  1  0.12500000  0.06666667  0.00833333  1.0
  Ni  Ni10  1  0.12500000  0.40000000  0.00833333  1.0
  Ni  Ni11  1  0.12500000  0.73333333  0.00833333  1.0
  Ni  Ni12  1  0.45833333  0.06666667  0.00833333  1.0
  Ni  Ni13  1  0.45833333  0.40000000  0.00833333  1.0
  Ni  Ni14  1  0.45833333  0.73333333  0.00833333  1.0
  Ni  Ni15  1  0.79166667  0.06666667  0.00833333  1.0
  Ni  Ni16  1  0.79166667  0.40000000  0.00833333  1.0
  Ni  Ni17  1  0.79166667  0.73333333  0.00833333  1.0
  Ni  Ni18  1  0.01388889  0.04444444  0.07500000  1.0
  Ni  Ni19  1  0.01388889  0.37777778  0.07500000  1.0
  Ni  Ni20  1  0.01388889  0.71111111  0.07500000  1.0
  Ni  Ni21  1  0.34722222  0.04444444  0.07500000  1.0
  Ni  Ni22  1  0.34722222  0.37777778  0.07500000  1.0
  Ni  Ni23  1  0.34722222  0.71111111  0.07500000  1.0
  Ni  Ni24  1  0.68055556  0.04444444  0.07500000  1.0
  Ni  Ni25  1  0.68055556  0.37777778  0.07500000  1.0
  Ni  Ni26  1  0.68055556  0.71111111  0.07500000  1.0
  Ni  Ni27  1  0.26388889  0.14444444  0.02500000  1.0
  Ni  Ni28  1  0.26388889  0.47777778  0.02500000  1.0
  Ni  Ni29  1  0.26388889  0.81111111  0.02500000  1.0
  Ni  Ni30  1  0.59722222  0.14444444  0.02500000  1.0
  Ni  Ni31  1  0.59722222  0.47777778  0.02500000  1.0
  Ni  Ni32  1  0.59722222  0.81111111  0.02500000  1.0
  Ni  Ni33  1  0.93055556  0.14444444  0.02500000  1.0
  Ni  Ni34  1  0.93055556  0.47777778  0.02500000  1.0
  Ni  Ni35  1  0.93055556  0.81111111  0.02500000  1.0
  Ni  Ni36  1  0.11111111  0.00555556  0.06666667  1.0
  Ni  Ni37  1  0.11111111  0.33888889  0.06666667  1.0
  Ni  Ni38  1  0.11111111  0.67222222  0.06666667  1.0
  Ni  Ni39  1  0.44444444  0.00555556  0.06666667  1.0
  Ni  Ni40  1  0.44444444  0.33888889  0.06666667  1.0
  Ni  Ni41  1  0.44444444  0.67222222  0.06666667  1.0
  Ni  Ni42  1  0.77777778  0.00555556  0.06666667  1.0
  Ni  Ni43  1  0.77777778  0.33888889  0.06666667  1.0
  Ni  Ni44  1  0.77777778  0.67222222  0.06666667  1.0
  Ni  Ni45  1  0.02777778  0.10555556  0.01666667  1.0
  Ni  Ni46  1  0.02777778  0.43888889  0.01666667  1.0
  Ni  Ni47  1  0.02777778  0.77222222  0.01666667  1.0
  Ni  Ni48  1  0.36111111  0.10555556  0.01666667  1.0
  Ni  Ni49  1  0.36111111  0.43888889  0.01666667  1.0
  Ni  Ni50  1  0.36111111  0.77222222  0.01666667  1.0
  Ni  Ni51  1  0.69444444  0.10555556  0.01666667  1.0
  Ni  Ni52  1  0.69444444  0.43888889  0.01666667  1.0
  Ni  Ni53  1  0.69444444  0.77222222  0.01666667  1.0
  Ni  Ni54  1  0.23611111  0.22222222  0.04166667  1.0
  Ni  Ni55  1  0.23611111  0.55555556  0.04166667  1.0
  Ni  Ni56  1  0.23611111  0.88888889  0.04166667  1.0
  Ni  Ni57  1  0.56944444  0.22222222  0.04166667  1.0
  Ni  Ni58  1  0.56944444  0.55555556  0.04166667  1.0
  Ni  Ni59  1  0.56944444  0.88888889  0.04166667  1.0
  Ni  Ni60  1  0.90277778  0.22222222  0.04166667  1.0
  Ni  Ni61  1  0.90277778  0.55555556  0.04166667  1.0
  Ni  Ni62  1  0.90277778  0.88888889  0.04166667  1.0
  Ni  Ni63  1  0.31944444  0.12222222  0.09166667  1.0
  Ni  Ni64  1  0.31944444  0.45555556  0.09166667  1.0
  Ni  Ni65  1  0.31944444  0.78888889  0.09166667  1.0
  Ni  Ni66  1  0.65277778  0.12222222  0.09166667  1.0
  Ni  Ni67  1  0.65277778  0.45555556  0.09166667  1.0
  Ni  Ni68  1  0.65277778  0.78888889  0.09166667  1.0
  Ni  Ni69  1  0.98611111  0.12222222  0.09166667  1.0
  Ni  Ni70  1  0.98611111  0.45555556  0.09166667  1.0
  Ni  Ni71  1  0.98611111  0.78888889  0.09166667  1.0
  Ni  Ni72  1  0.31944444  0.28888889  0.09166667  1.0
  Ni  Ni73  1  0.31944444  0.62222222  0.09166667  1.0
  Ni  Ni74  1  0.31944444  0.95555556  0.09166667  1.0
  Ni  Ni75  1  0.65277778  0.28888889  0.09166667  1.0
  Ni  Ni76  1  0.65277778  0.62222222  0.09166667  1.0
  Ni  Ni77  1  0.65277778  0.95555556  0.09166667  1.0
  Ni  Ni78  1  0.98611111  0.28888889  0.09166667  1.0
  Ni  Ni79  1  0.98611111  0.62222222  0.09166667  1.0
  Ni  Ni80  1  0.98611111  0.95555556  0.09166667  1.0
  Ni  Ni81  1  0.23611111  0.05555556  0.04166667  1.0
  Ni  Ni82  1  0.23611111  0.38888889  0.04166667  1.0
  Ni  Ni83  1  0.23611111  0.72222222  0.04166667  1.0
  Ni  Ni84  1  0.56944444  0.05555556  0.04166667  1.0
  Ni  Ni85  1  0.56944444  0.38888889  0.04166667  1.0
  Ni  Ni86  1  0.56944444  0.72222222  0.04166667  1.0
  Ni  Ni87  1  0.90277778  0.05555556  0.04166667  1.0
  Ni  Ni88  1  0.90277778  0.38888889  0.04166667  1.0
  Ni  Ni89  1  0.90277778  0.72222222  0.04166667  1.0
  Ni  Ni90  1  0.04166667  0.10000000  0.15833333  1.0
  Ni  Ni91  1  0.04166667  0.43333333  0.15833333  1.0
  Ni  Ni92  1  0.04166667  0.76666667  0.15833333  1.0
  Ni  Ni93  1  0.37500000  0.10000000  0.15833333  1.0
  Ni  Ni94  1  0.37500000  0.43333333  0.15833333  1.0
  Ni  Ni95  1  0.37500000  0.76666667  0.15833333  1.0
  Ni  Ni96  1  0.70833333  0.10000000  0.15833333  1.0
  Ni  Ni97  1  0.70833333  0.43333333  0.15833333  1.0
  Ni  Ni98  1  0.70833333  0.76666667  0.15833333  1.0
  Ni  Ni99  1  0.29166667  0.20000000  0.10833333  1.0
  Ni  Ni100  1  0.29166667  0.53333333  0.10833333  1.0
  Ni  Ni101  1  0.29166667  0.86666667  0.10833333  1.0
  Ni  Ni102  1  0.62500000  0.20000000  0.10833333  1.0
  Ni  Ni103  1  0.62500000  0.53333333  0.10833333  1.0
  Ni  Ni104  1  0.62500000  0.86666667  0.10833333  1.0
  Ni  Ni105  1  0.95833333  0.20000000  0.10833333  1.0
  Ni  Ni106  1  0.95833333  0.53333333  0.10833333  1.0
  Ni  Ni107  1  0.95833333  0.86666667  0.10833333  1.0
  Ni  Ni108  1  0.18055556  0.17777778  0.17500000  1.0
  Ni  Ni109  1  0.18055556  0.51111111  0.17500000  1.0
  Ni  Ni110  1  0.18055556  0.84444444  0.17500000  1.0
  Ni  Ni111  1  0.51388889  0.17777778  0.17500000  1.0
  Ni  Ni112  1  0.51388889  0.51111111  0.17500000  1.0
  Ni  Ni113  1  0.51388889  0.84444444  0.17500000  1.0
  Ni  Ni114  1  0.84722222  0.17777778  0.17500000  1.0
  Ni  Ni115  1  0.84722222  0.51111111  0.17500000  1.0
  Ni  Ni116  1  0.84722222  0.84444444  0.17500000  1.0
  Ni  Ni117  1  0.09722222  0.27777778  0.12500000  1.0
  Ni  Ni118  1  0.09722222  0.61111111  0.12500000  1.0
  Ni  Ni119  1  0.09722222  0.94444444  0.12500000  1.0
  Ni  Ni120  1  0.43055556  0.27777778  0.12500000  1.0
  Ni  Ni121  1  0.43055556  0.61111111  0.12500000  1.0
  Ni  Ni122  1  0.43055556  0.94444444  0.12500000  1.0
  Ni  Ni123  1  0.76388889  0.27777778  0.12500000  1.0
  Ni  Ni124  1  0.76388889  0.61111111  0.12500000  1.0
  Ni  Ni125  1  0.76388889  0.94444444  0.12500000  1.0
  Ni  Ni126  1  0.27777778  0.13888889  0.16666667  1.0
  Ni  Ni127  1  0.27777778  0.47222222  0.16666667  1.0
  Ni  Ni128  1  0.27777778  0.80555556  0.16666667  1.0
  Ni  Ni129  1  0.61111111  0.13888889  0.16666667  1.0
  Ni  Ni130  1  0.61111111  0.47222222  0.16666667  1.0
  Ni  Ni131  1  0.61111111  0.80555556  0.16666667  1.0
  Ni  Ni132  1  0.94444444  0.13888889  0.16666667  1.0
  Ni  Ni133  1  0.94444444  0.47222222  0.16666667  1.0
  Ni  Ni134  1  0.94444444  0.80555556  0.16666667  1.0
  Ni  Ni135  1  0.19444444  0.23888889  0.11666667  1.0
  Ni  Ni136  1  0.19444444  0.57222222  0.11666667  1.0
  Ni  Ni137  1  0.19444444  0.90555556  0.11666667  1.0
  Ni  Ni138  1  0.52777778  0.23888889  0.11666667  1.0
  Ni  Ni139  1  0.52777778  0.57222222  0.11666667  1.0
  Ni  Ni140  1  0.52777778  0.90555556  0.11666667  1.0
  Ni  Ni141  1  0.86111111  0.23888889  0.11666667  1.0
  Ni  Ni142  1  0.86111111  0.57222222  0.11666667  1.0
  Ni  Ni143  1  0.86111111  0.90555556  0.11666667  1.0
  Ni  Ni144  1  0.06944444  0.02222222  0.14166667  1.0
  Ni  Ni145  1  0.06944444  0.35555556  0.14166667  1.0
  Ni  Ni146  1  0.06944444  0.68888889  0.14166667  1.0
  Ni  Ni147  1  0.40277778  0.02222222  0.14166667  1.0
  Ni  Ni148  1  0.40277778  0.35555556  0.14166667  1.0
  Ni  Ni149  1  0.40277778  0.68888889  0.14166667  1.0
  Ni  Ni150  1  0.73611111  0.02222222  0.14166667  1.0
  Ni  Ni151  1  0.73611111  0.35555556  0.14166667  1.0
  Ni  Ni152  1  0.73611111  0.68888889  0.14166667  1.0
  Ni  Ni153  1  0.15277778  0.25555556  0.19166667  1.0
  Ni  Ni154  1  0.15277778  0.58888889  0.19166667  1.0
  Ni  Ni155  1  0.15277778  0.92222222  0.19166667  1.0
  Ni  Ni156  1  0.48611111  0.25555556  0.19166667  1.0
  Ni  Ni157  1  0.48611111  0.58888889  0.19166667  1.0
  Ni  Ni158  1  0.48611111  0.92222222  0.19166667  1.0
  Ni  Ni159  1  0.81944444  0.25555556  0.19166667  1.0
  Ni  Ni160  1  0.81944444  0.58888889  0.19166667  1.0
  Ni  Ni161  1  0.81944444  0.92222222  0.19166667  1.0
  Ni  Ni162  1  0.15277778  0.08888889  0.19166667  1.0
  Ni  Ni163  1  0.15277778  0.42222222  0.19166667  1.0
  Ni  Ni164  1  0.15277778  0.75555556  0.19166667  1.0
  Ni  Ni165  1  0.48611111  0.08888889  0.19166667  1.0
  Ni  Ni166  1  0.48611111  0.42222222  0.19166667  1.0
  Ni  Ni167  1  0.48611111  0.75555556  0.19166667  1.0
  Ni  Ni168  1  0.81944444  0.08888889  0.19166667  1.0
  Ni  Ni169  1  0.81944444  0.42222222  0.19166667  1.0
  Ni  Ni170  1  0.81944444  0.75555556  0.19166667  1.0
  Ni  Ni171  1  0.06944444  0.18888889  0.14166667  1.0
  Ni  Ni172  1  0.06944444  0.52222222  0.14166667  1.0
  Ni  Ni173  1  0.06944444  0.85555556  0.14166667  1.0
  Ni  Ni174  1  0.40277778  0.18888889  0.14166667  1.0
  Ni  Ni175  1  0.40277778  0.52222222  0.14166667  1.0
  Ni  Ni176  1  0.40277778  0.85555556  0.14166667  1.0
  Ni  Ni177  1  0.73611111  0.18888889  0.14166667  1.0
  Ni  Ni178  1  0.73611111  0.52222222  0.14166667  1.0
  Ni  Ni179  1  0.73611111  0.85555556  0.14166667  1.0
  Ni  Ni180  1  0.20833333  0.23333333  0.25833333  1.0
  Ni  Ni181  1  0.20833333  0.56666667  0.25833333  1.0
  Ni  Ni182  1  0.20833333  0.90000000  0.25833333  1.0
  Ni  Ni183  1  0.54166667  0.23333333  0.25833333  1.0
  Ni  Ni184  1  0.54166667  0.56666667  0.25833333  1.0
  Ni  Ni185  1  0.54166667  0.90000000  0.25833333  1.0
  Ni  Ni186  1  0.87500000  0.23333333  0.25833333  1.0
  Ni  Ni187  1  0.87500000  0.56666667  0.25833333  1.0
  Ni  Ni188  1  0.87500000  0.90000000  0.25833333  1.0
  Ni  Ni189  1  0.12500000  0.00000000  0.20833333  1.0
  Ni  Ni190  1  0.12500000  0.33333333  0.20833333  1.0
  Ni  Ni191  1  0.12500000  0.66666667  0.20833333  1.0
  Ni  Ni192  1  0.45833333  0.00000000  0.20833333  1.0
  Ni  Ni193  1  0.45833333  0.33333333  0.20833333  1.0
  Ni  Ni194  1  0.45833333  0.66666667  0.20833333  1.0
  Ni  Ni195  1  0.79166667  0.00000000  0.20833333  1.0
  Ni  Ni196  1  0.79166667  0.33333333  0.20833333  1.0
  Ni  Ni197  1  0.79166667  0.66666667  0.20833333  1.0
  Ni  Ni198  1  0.01388889  0.31111111  0.27500000  1.0
  Ni  Ni199  1  0.01388889  0.64444444  0.27500000  1.0
  Ni  Ni200  1  0.01388889  0.97777778  0.27500000  1.0
  Ni  Ni201  1  0.34722222  0.31111111  0.27500000  1.0
  Ni  Ni202  1  0.34722222  0.64444444  0.27500000  1.0
  Ni  Ni203  1  0.34722222  0.97777778  0.27500000  1.0
  Ni  Ni204  1  0.68055556  0.31111111  0.27500000  1.0
  Ni  Ni205  1  0.68055556  0.64444444  0.27500000  1.0
  Ni  Ni206  1  0.68055556  0.97777778  0.27500000  1.0
  Ni  Ni207  1  0.26388889  0.07777778  0.22500000  1.0
  Ni  Ni208  1  0.26388889  0.41111111  0.22500000  1.0
  Ni  Ni209  1  0.26388889  0.74444444  0.22500000  1.0
  Ni  Ni210  1  0.59722222  0.07777778  0.22500000  1.0
  Ni  Ni211  1  0.59722222  0.41111111  0.22500000  1.0
  Ni  Ni212  1  0.59722222  0.74444444  0.22500000  1.0
  Ni  Ni213  1  0.93055556  0.07777778  0.22500000  1.0
  Ni  Ni214  1  0.93055556  0.41111111  0.22500000  1.0
  Ni  Ni215  1  0.93055556  0.74444444  0.22500000  1.0
  Ni  Ni216  1  0.11111111  0.27222222  0.26666667  1.0
  Ni  Ni217  1  0.11111111  0.60555556  0.26666667  1.0
  Ni  Ni218  1  0.11111111  0.93888889  0.26666667  1.0
  Ni  Ni219  1  0.44444444  0.27222222  0.26666667  1.0
  Ni  Ni220  1  0.44444444  0.60555556  0.26666667  1.0
  Ni  Ni221  1  0.44444444  0.93888889  0.26666667  1.0
  Ni  Ni222  1  0.77777778  0.27222222  0.26666667  1.0
  Ni  Ni223  1  0.77777778  0.60555556  0.26666667  1.0
  Ni  Ni224  1  0.77777778  0.93888889  0.26666667  1.0
  Ni  Ni225  1  0.02777778  0.03888889  0.21666667  1.0
  Ni  Ni226  1  0.02777778  0.37222222  0.21666667  1.0
  Ni  Ni227  1  0.02777778  0.70555556  0.21666667  1.0
  Ni  Ni228  1  0.36111111  0.03888889  0.21666667  1.0
  Ni  Ni229  1  0.36111111  0.37222222  0.21666667  1.0
  Ni  Ni230  1  0.36111111  0.70555556  0.21666667  1.0
  Ni  Ni231  1  0.69444444  0.03888889  0.21666667  1.0
  Ni  Ni232  1  0.69444444  0.37222222  0.21666667  1.0
  Ni  Ni233  1  0.69444444  0.70555556  0.21666667  1.0
  Ni  Ni234  1  0.23611111  0.15555556  0.24166667  1.0
  Ni  Ni235  1  0.23611111  0.48888889  0.24166667  1.0
  Ni  Ni236  1  0.23611111  0.82222222  0.24166667  1.0
  Ni  Ni237  1  0.56944444  0.15555556  0.24166667  1.0
  Ni  Ni238  1  0.56944444  0.48888889  0.24166667  1.0
  Ni  Ni239  1  0.56944444  0.82222222  0.24166667  1.0
  Ni  Ni240  1  0.90277778  0.15555556  0.24166667  1.0
  Ni  Ni241  1  0.90277778  0.48888889  0.24166667  1.0
  Ni  Ni242  1  0.90277778  0.82222222  0.24166667  1.0
  Ni  Ni243  1  0.31944444  0.05555556  0.29166667  1.0
  Ni  Ni244  1  0.31944444  0.38888889  0.29166667  1.0
  Ni  Ni245  1  0.31944444  0.72222222  0.29166667  1.0
  Ni  Ni246  1  0.65277778  0.05555556  0.29166667  1.0
  Ni  Ni247  1  0.65277778  0.38888889  0.29166667  1.0
  Ni  Ni248  1  0.65277778  0.72222222  0.29166667  1.0
  Ni  Ni249  1  0.98611111  0.05555556  0.29166667  1.0
  Ni  Ni250  1  0.98611111  0.38888889  0.29166667  1.0
  Ni  Ni251  1  0.98611111  0.72222222  0.29166667  1.0
  Ni  Ni252  1  0.31944444  0.22222222  0.29166667  1.0
  Ni  Ni253  1  0.31944444  0.55555556  0.29166667  1.0
  Ni  Ni254  1  0.31944444  0.88888889  0.29166667  1.0
  Ni  Ni255  1  0.65277778  0.22222222  0.29166667  1.0
  Ni  Ni256  1  0.65277778  0.55555556  0.29166667  1.0
  Ni  Ni257  1  0.65277778  0.88888889  0.29166667  1.0
  Ni  Ni258  1  0.98611111  0.22222222  0.29166667  1.0
  Ni  Ni259  1  0.98611111  0.55555556  0.29166667  1.0
  Ni  Ni260  1  0.98611111  0.88888889  0.29166667  1.0
  Ni  Ni261  1  0.23611111  0.32222222  0.24166667  1.0
  Ni  Ni262  1  0.23611111  0.65555556  0.24166667  1.0
  Ni  Ni263  1  0.23611111  0.98888889  0.24166667  1.0
  Ni  Ni264  1  0.56944444  0.32222222  0.24166667  1.0
  Ni  Ni265  1  0.56944444  0.65555556  0.24166667  1.0
  Ni  Ni266  1  0.56944444  0.98888889  0.24166667  1.0
  Ni  Ni267  1  0.90277778  0.32222222  0.24166667  1.0
  Ni  Ni268  1  0.90277778  0.65555556  0.24166667  1.0
  Ni  Ni269  1  0.90277778  0.98888889  0.24166667  1.0
  Ni  Ni270  1  0.04166667  0.03333333  0.35833333  1.0
  Ni  Ni271  1  0.04166667  0.36666667  0.35833333  1.0
  Ni  Ni272  1  0.04166667  0.70000000  0.35833333  1.0
  Ni  Ni273  1  0.37500000  0.03333333  0.35833333  1.0
  Ni  Ni274  1  0.37500000  0.36666667  0.35833333  1.0
  Ni  Ni275  1  0.37500000  0.70000000  0.35833333  1.0
  Ni  Ni276  1  0.70833333  0.03333333  0.35833333  1.0
  Ni  Ni277  1  0.70833333  0.36666667  0.35833333  1.0
  Ni  Ni278  1  0.70833333  0.70000000  0.35833333  1.0
  Ni  Ni279  1  0.29166667  0.13333333  0.30833333  1.0
  Ni  Ni280  1  0.29166667  0.46666667  0.30833333  1.0
  Ni  Ni281  1  0.29166667  0.80000000  0.30833333  1.0
  Ni  Ni282  1  0.62500000  0.13333333  0.30833333  1.0
  Ni  Ni283  1  0.62500000  0.46666667  0.30833333  1.0
  Ni  Ni284  1  0.62500000  0.80000000  0.30833333  1.0
  Ni  Ni285  1  0.95833333  0.13333333  0.30833333  1.0
  Ni  Ni286  1  0.95833333  0.46666667  0.30833333  1.0
  Ni  Ni287  1  0.95833333  0.80000000  0.30833333  1.0
  Ni  Ni288  1  0.18055556  0.11111111  0.37500000  1.0
  Ni  Ni289  1  0.18055556  0.44444444  0.37500000  1.0
  Ni  Ni290  1  0.18055556  0.77777778  0.37500000  1.0
  Ni  Ni291  1  0.51388889  0.11111111  0.37500000  1.0
  Ni  Ni292  1  0.51388889  0.44444444  0.37500000  1.0
  Ni  Ni293  1  0.51388889  0.77777778  0.37500000  1.0
  Ni  Ni294  1  0.84722222  0.11111111  0.37500000  1.0
  Ni  Ni295  1  0.84722222  0.44444444  0.37500000  1.0
  Ni  Ni296  1  0.84722222  0.77777778  0.37500000  1.0
  Ni  Ni297  1  0.09722222  0.21111111  0.32500000  1.0
  Ni  Ni298  1  0.09722222  0.54444444  0.32500000  1.0
  Ni  Ni299  1  0.09722222  0.87777778  0.32500000  1.0
  Ni  Ni300  1  0.43055556  0.21111111  0.32500000  1.0
  Ni  Ni301  1  0.43055556  0.54444444  0.32500000  1.0
  Ni  Ni302  1  0.43055556  0.87777778  0.32500000  1.0
  Ni  Ni303  1  0.76388889  0.21111111  0.32500000  1.0
  Ni  Ni304  1  0.76388889  0.54444444  0.32500000  1.0
  Ni  Ni305  1  0.76388889  0.87777778  0.32500000  1.0
  Ni  Ni306  1  0.27777778  0.07222222  0.36666667  1.0
  Ni  Ni307  1  0.27777778  0.40555556  0.36666667  1.0
  Ni  Ni308  1  0.27777778  0.73888889  0.36666667  1.0
  Ni  Ni309  1  0.61111111  0.07222222  0.36666667  1.0
  Ni  Ni310  1  0.61111111  0.40555556  0.36666667  1.0
  Ni  Ni311  1  0.61111111  0.73888889  0.36666667  1.0
  Ni  Ni312  1  0.94444444  0.07222222  0.36666667  1.0
  Ni  Ni313  1  0.94444444  0.40555556  0.36666667  1.0
  Ni  Ni314  1  0.94444444  0.73888889  0.36666667  1.0
  Ni  Ni315  1  0.19444444  0.17222222  0.31666667  1.0
  Ni  Ni316  1  0.19444444  0.50555556  0.31666667  1.0
  Ni  Ni317  1  0.19444444  0.83888889  0.31666667  1.0
  Ni  Ni318  1  0.52777778  0.17222222  0.31666667  1.0
  Ni  Ni319  1  0.52777778  0.50555556  0.31666667  1.0
  Ni  Ni320  1  0.52777778  0.83888889  0.31666667  1.0
  Ni  Ni321  1  0.86111111  0.17222222  0.31666667  1.0
  Ni  Ni322  1  0.86111111  0.50555556  0.31666667  1.0
  Ni  Ni323  1  0.86111111  0.83888889  0.31666667  1.0
  Ni  Ni324  1  0.06944444  0.28888889  0.34166667  1.0
  Ni  Ni325  1  0.06944444  0.62222222  0.34166667  1.0
  Ni  Ni326  1  0.06944444  0.95555556  0.34166667  1.0
  Ni  Ni327  1  0.40277778  0.28888889  0.34166667  1.0
  Ni  Ni328  1  0.40277778  0.62222222  0.34166667  1.0
  Ni  Ni329  1  0.40277778  0.95555556  0.34166667  1.0
  Ni  Ni330  1  0.73611111  0.28888889  0.34166667  1.0
  Ni  Ni331  1  0.73611111  0.62222222  0.34166667  1.0
  Ni  Ni332  1  0.73611111  0.95555556  0.34166667  1.0
  Ni  Ni333  1  0.15277778  0.18888889  0.39166667  1.0
  Ni  Ni334  1  0.15277778  0.52222222  0.39166667  1.0
  Ni  Ni335  1  0.15277778  0.85555556  0.39166667  1.0
  Ni  Ni336  1  0.48611111  0.18888889  0.39166667  1.0
  Ni  Ni337  1  0.48611111  0.52222222  0.39166667  1.0
  Ni  Ni338  1  0.48611111  0.85555556  0.39166667  1.0
  Ni  Ni339  1  0.81944444  0.18888889  0.39166667  1.0
  Ni  Ni340  1  0.81944444  0.52222222  0.39166667  1.0
  Ni  Ni341  1  0.81944444  0.85555556  0.39166667  1.0
  Ni  Ni342  1  0.15277778  0.02222222  0.39166667  1.0
  Ni  Ni343  1  0.15277778  0.35555556  0.39166667  1.0
  Ni  Ni344  1  0.15277778  0.68888889  0.39166667  1.0
  Ni  Ni345  1  0.48611111  0.02222222  0.39166667  1.0
  Ni  Ni346  1  0.48611111  0.35555556  0.39166667  1.0
  Ni  Ni347  1  0.48611111  0.68888889  0.39166667  1.0
  Ni  Ni348  1  0.81944444  0.02222222  0.39166667  1.0
  Ni  Ni349  1  0.81944444  0.35555556  0.39166667  1.0
  Ni  Ni350  1  0.81944444  0.68888889  0.39166667  1.0
  Ni  Ni351  1  0.06944444  0.12222222  0.34166667  1.0
  Ni  Ni352  1  0.06944444  0.45555556  0.34166667  1.0
  Ni  Ni353  1  0.06944444  0.78888889  0.34166667  1.0
  Ni  Ni354  1  0.40277778  0.12222222  0.34166667  1.0
  Ni  Ni355  1  0.40277778  0.45555556  0.34166667  1.0
  Ni  Ni356  1  0.40277778  0.78888889  0.34166667  1.0
  Ni  Ni357  1  0.73611111  0.12222222  0.34166667  1.0
  Ni  Ni358  1  0.73611111  0.45555556  0.34166667  1.0
  Ni  Ni359  1  0.73611111  0.78888889  0.34166667  1.0
  Y  Y360  1  0.15277778  0.12222222  0.09166667  1.0
  Y  Y361  1  0.15277778  0.45555556  0.09166667  1.0
  Y  Y362  1  0.15277778  0.78888889  0.09166667  1.0
  Y  Y363  1  0.48611111  0.12222222  0.09166667  1.0
  Y  Y364  1  0.48611111  0.45555556  0.09166667  1.0
  Y  Y365  1  0.48611111  0.78888889  0.09166667  1.0
  Y  Y366  1  0.81944444  0.12222222  0.09166667  1.0
  Y  Y367  1  0.81944444  0.45555556  0.09166667  1.0
  Y  Y368  1  0.81944444  0.78888889  0.09166667  1.0
  Y  Y369  1  0.06944444  0.22222222  0.04166667  1.0
  Y  Y370  1  0.06944444  0.55555556  0.04166667  1.0
  Y  Y371  1  0.06944444  0.88888889  0.04166667  1.0
  Y  Y372  1  0.40277778  0.22222222  0.04166667  1.0
  Y  Y373  1  0.40277778  0.55555556  0.04166667  1.0
  Y  Y374  1  0.40277778  0.88888889  0.04166667  1.0
  Y  Y375  1  0.73611111  0.22222222  0.04166667  1.0
  Y  Y376  1  0.73611111  0.55555556  0.04166667  1.0
  Y  Y377  1  0.73611111  0.88888889  0.04166667  1.0
  Y  Y378  1  0.31944444  0.25555556  0.19166667  1.0
  Y  Y379  1  0.31944444  0.58888889  0.19166667  1.0
  Y  Y380  1  0.31944444  0.92222222  0.19166667  1.0
  Y  Y381  1  0.65277778  0.25555556  0.19166667  1.0
  Y  Y382  1  0.65277778  0.58888889  0.19166667  1.0
  Y  Y383  1  0.65277778  0.92222222  0.19166667  1.0
  Y  Y384  1  0.98611111  0.25555556  0.19166667  1.0
  Y  Y385  1  0.98611111  0.58888889  0.19166667  1.0
  Y  Y386  1  0.98611111  0.92222222  0.19166667  1.0
  Y  Y387  1  0.23611111  0.02222222  0.14166667  1.0
  Y  Y388  1  0.23611111  0.35555556  0.14166667  1.0
  Y  Y389  1  0.23611111  0.68888889  0.14166667  1.0
  Y  Y390  1  0.56944444  0.02222222  0.14166667  1.0
  Y  Y391  1  0.56944444  0.35555556  0.14166667  1.0
  Y  Y392  1  0.56944444  0.68888889  0.14166667  1.0
  Y  Y393  1  0.90277778  0.02222222  0.14166667  1.0
  Y  Y394  1  0.90277778  0.35555556  0.14166667  1.0
  Y  Y395  1  0.90277778  0.68888889  0.14166667  1.0
  Y  Y396  1  0.15277778  0.05555556  0.29166667  1.0
  Y  Y397  1  0.15277778  0.38888889  0.29166667  1.0
  Y  Y398  1  0.15277778  0.72222222  0.29166667  1.0
  Y  Y399  1  0.48611111  0.05555556  0.29166667  1.0
  Y  Y400  1  0.48611111  0.38888889  0.29166667  1.0
  Y  Y401  1  0.48611111  0.72222222  0.29166667  1.0
  Y  Y402  1  0.81944444  0.05555556  0.29166667  1.0
  Y  Y403  1  0.81944444  0.38888889  0.29166667  1.0
  Y  Y404  1  0.81944444  0.72222222  0.29166667  1.0
  Y  Y405  1  0.06944444  0.15555556  0.24166667  1.0
  Y  Y406  1  0.06944444  0.48888889  0.24166667  1.0
  Y  Y407  1  0.06944444  0.82222222  0.24166667  1.0
  Y  Y408  1  0.40277778  0.15555556  0.24166667  1.0
  Y  Y409  1  0.40277778  0.48888889  0.24166667  1.0
  Y  Y410  1  0.40277778  0.82222222  0.24166667  1.0
  Y  Y411  1  0.73611111  0.15555556  0.24166667  1.0
  Y  Y412  1  0.73611111  0.48888889  0.24166667  1.0
  Y  Y413  1  0.73611111  0.82222222  0.24166667  1.0
  Y  Y414  1  0.31944444  0.18888889  0.39166667  1.0
  Y  Y415  1  0.31944444  0.52222222  0.39166667  1.0
  Y  Y416  1  0.31944444  0.85555556  0.39166667  1.0
  Y  Y417  1  0.65277778  0.18888889  0.39166667  1.0
  Y  Y418  1  0.65277778  0.52222222  0.39166667  1.0
  Y  Y419  1  0.65277778  0.85555556  0.39166667  1.0
  Y  Y420  1  0.98611111  0.18888889  0.39166667  1.0
  Y  Y421  1  0.98611111  0.52222222  0.39166667  1.0
  Y  Y422  1  0.98611111  0.85555556  0.39166667  1.0
  Y  Y423  1  0.23611111  0.28888889  0.34166667  1.0
  Y  Y424  1  0.23611111  0.62222222  0.34166667  1.0
  Y  Y425  1  0.23611111  0.95555556  0.34166667  1.0
  Y  Y426  1  0.56944444  0.28888889  0.34166667  1.0
  Y  Y427  1  0.56944444  0.62222222  0.34166667  1.0
  Y  Y428  1  0.56944444  0.95555556  0.34166667  1.0
  Y  Y429  1  0.90277778  0.28888889  0.34166667  1.0
  Y  Y430  1  0.90277778  0.62222222  0.34166667  1.0
  Y  Y431  1  0.90277778  0.95555556  0.34166667  1.0
