# generated using pymatgen
data_YNi5
_symmetry_space_group_name_H-M   'P 1'
_cell_length_a   25.36908965
_cell_length_b   18.82576289
_cell_length_c   51.25055000
_cell_angle_alpha   51.07979297
_cell_angle_beta   90.00000000
_cell_angle_gamma   47.64001453
_symmetry_Int_Tables_number   1
_chemical_formula_structural   YNi5
_chemical_formula_sum   'Y45 Ni225'
_cell_volume   9521.76971599
_cell_formula_units_Z   45
loop_
 _symmetry_equiv_pos_site_id
 _symmetry_equiv_pos_as_xyz
  1  'x, y, z'
loop_
 _atom_site_type_symbol
 _atom_site_label
 _atom_site_symmetry_multiplicity
 _atom_site_fract_x
 _atom_site_fract_y
 _atom_site_fract_z
 _atom_site_occupancy
  Y  Y0  1  0.00000000  0.00000000  0.05769231  1.0
  Y  Y1  1  0.00000000  0.33333333  0.05769231  1.0
  Y  Y2  1  0.00000000  0.66666667  0.05769231  1.0
  Y  Y3  1  0.33333333  0.00000000  0.05769231  1.0
  Y  Y4  1  0.33333333  0.33333333  0.05769231  1.0
  Y  Y5  1  0.33333333  0.66666667  0.05769231  1.0
  Y  Y6  1  0.66666667  0.00000000  0.05769231  1.0
  Y  Y7  1  0.66666667  0.33333333  0.05769231  1.0
  Y  Y8  1  0.66666667  0.66666667  0.05769231  1.0
  Ni  Ni9  1  0.22222222  0.00000000  0.05769231  1.0
  Ni  Ni10  1  0.22222222  0.33333333  0.05769231  1.0
  Ni  Ni11  1  0.22222222  0.66666667  0.05769231  1.0
  Ni  Ni12  1  0.55555556  0.00000000  0.05769231  1.0
  Ni  Ni13  1  0.55555556  0.33333333  0.05769231  1.0
  Ni  Ni14  1  0.55555556  0.66666667  0.05769231  1.0
  Ni  Ni15  1  0.88888889  0.00000000  0.05769231  1.0
  Ni  Ni16  1  0.88888889  0.33333333  0.05769231  1.0
  Ni  Ni17  1  0.88888889  0.66666667  0.05769231  1.0
  Ni  Ni18  1  0.11111111  0.00000000  0.05769231  1.0
  Ni  Ni19  1  0.11111111  0.33333333  0.05769231  1.0
  Ni  Ni20  1  0.11111111  0.66666667  0.05769231  1.0
  Ni  Ni21  1  0.44444444  0.00000000  0.05769231  1.0
  Ni  Ni22  1  0.44444444  0.33333333  0.05769231  1.0
  Ni  Ni23  1  0.44444444  0.66666667  0.05769231  1.0
  Ni  Ni24  1  0.77777778  0.00000000  0.05769231  1.0
  Ni  Ni25  1  0.77777778  0.33333333  0.05769231  1.0
  Ni  Ni26  1  0.77777778  0.66666667  0.05769231  1.0
  Ni  Ni27  1  0.00000000  0.16666667  0.05769231  1.0
  Ni  Ni28  1  0.00000000  0.50000000  0.05769231  1.0
  Ni  Ni29  1  0.00000000  0.83333333  0.05769231  1.0
  Ni  Ni30  1  0.33333333  0.16666667  0.05769231  1.0
  Ni  Ni31  1  0.33333333  0.50000000  0.05769231  1.0
  Ni  Ni32  1  0.33333333  0.83333333  0.05769231  1.0
  Ni  Ni33  1  0.66666667  0.16666667  0.05769231  1.0
  Ni  Ni34  1  0.66666667  0.50000000  0.05769231  1.0
  Ni  Ni35  1  0.66666667  0.83333333  0.05769231  1.0
  Ni  Ni36  1  0.16666667  0.16666667  0.05769231  1.0
  Ni  Ni37  1  0.16666667  0.50000000  0.05769231  1.0
  Ni  Ni38  1  0.16666667  0.83333333  0.05769231  1.0
  Ni  Ni39  1  0.50000000  0.16666667  0.05769231  1.0
  Ni  Ni40  1  0.50000000  0.50000000  0.05769231  1.0
  Ni  Ni41  1  0.50000000  0.83333333  0.05769231  1.0
  Ni  Ni42  1  0.83333333  0.16666667  0.05769231  1.0
  Ni  Ni43  1  0.83333333  0.50000000  0.05769231  1.0
  Ni  Ni44  1  0.83333333  0.83333333  0.05769231  1.0
  Ni  Ni45  1  0.16666667  0.00000000  0.01923077  1.0
  Ni  Ni46  1  0.16666667  0.33333333  0.01923077  1.0
  Ni  Ni47  1  0.16666667  0.66666667  0.01923077  1.0
  Ni  Ni48  1  0.50000000  0.00000000  0.01923077  1.0
  Ni  Ni49  1  0.50000000  0.33333333  0.01923077  1.0
  Ni  Ni50  1  0.50000000  0.66666667  0.01923077  1.0
  Ni  Ni51  1  0.83333333  0.00000000  0.01923077  1.0
  Ni  Ni52  1  0.83333333  0.33333333  0.01923077  1.0
  Ni  Ni53  1  0.83333333  0.66666667  0.01923077  1.0
  Y  Y54  1  0.00000000  0.00000000  0.13461538  1.0
  Y  Y55  1  0.00000000  0.33333333  0.13461538  1.0
  Y  Y56  1  0.00000000  0.66666667  0.13461538  1.0
  Y  Y57  1  0.33333333  0.00000000  0.13461538  1.0
  Y  Y58  1  0.33333333  0.33333333  0.13461538  1.0
  Y  Y59  1  0.33333333  0.66666667  0.13461538  1.0
  Y  Y60  1  0.66666667  0.00000000  0.13461538  1.0
  Y  Y61  1  0.66666667  0.33333333  0.13461538  1.0
  Y  Y62  1  0.66666667  0.66666667  0.13461538  1.0
  Ni  Ni63  1  0.22222222  0.00000000  0.13461538  1.0
  Ni  Ni64  1  0.22222222  0.33333333  0.13461538  1.0
  Ni  Ni65  1  0.22222222  0.66666667  0.13461538  1.0
  Ni  Ni66  1  0.55555556  0.00000000  0.13461538  1.0
  Ni  Ni67  1  0.55555556  0.33333333  0.13461538  1.0
  Ni  Ni68  1  0.55555556  0.66666667  0.13461538  1.0
  Ni  Ni69  1  0.88888889  0.00000000  0.13461538  1.0
  Ni  Ni70  1  0.88888889  0.33333333  0.13461538  1.0
  Ni  Ni71  1  0.88888889  0.66666667  0.13461538  1.0
  Ni  Ni72  1  0.11111111  0.00000000  0.13461538  1.0
  Ni  Ni73  1  0.11111111  0.33333333  0.13461538  1.0
  Ni  Ni74  1  0.11111111  0.66666667  0.13461538  1.0
  Ni  Ni75  1  0.44444444  0.00000000  0.13461538  1.0
  Ni  Ni76  1  0.44444444  0.33333333  0.13461538  1.0
  Ni  Ni77  1  0.44444444  0.66666667  0.13461538  1.0
  Ni  Ni78  1  0.77777778  0.00000000  0.13461538  1.0
  Ni  Ni79  1  0.77777778  0.33333333  0.13461538  1.0
  Ni  Ni80  1  0.77777778  0.66666667  0.13461538  1.0
  Ni  Ni81  1  0.00000000  0.16666667  0.13461538  1.0
  Ni  Ni82  1  0.00000000  0.50000000  0.13461538  1.0
  Ni  Ni83  1  0.00000000  0.83333333  0.13461538  1.0
  Ni  Ni84  1  0.33333333  0.16666667  0.13461538  1.0
  Ni  Ni85  1  0.33333333  0.50000000  0.13461538  1.0
  Ni  Ni86  1  0.33333333  0.83333333  0.13461538  1.0
  Ni  Ni87  1  0.66666667  0.16666667  0.13461538  1.0
  Ni  Ni88  1  0.66666667  0.50000000  0.13461538  1.0
  Ni  Ni89  1  0.66666667  0.83333333  0.13461538  1.0
  Ni  Ni90  1  0.16666667  0.16666667  0.13461538  1.0
  Ni  Ni91  1  0.16666667  0.50000000  0.13461538  1.0
  Ni  Ni92  1  0.16666667  0.83333333  0.13461538  1.0
  Ni  Ni93  1  0.50000000  0.16666667  0.13461538  1.0
  Ni  Ni94  1  0.50000000  0.50000000  0.13461538  1.0
  Ni  Ni95  1  0.50000000  0.83333333  0.13461538  1.0
  Ni  Ni96  1  0.83333333  0.16666667  0.13461538  1.0
  Ni  Ni97  1  0.83333333  0.50000000  0.13461538  1.0
  Ni  Ni98  1  0.83333333  0.83333333  0.13461538  1.0
  Ni  Ni99  1  0.16666667  0.00000000  0.09615385  1.0
  Ni  Ni100  1  0.16666667  0.33333333  0.09615385  1.0
  Ni  Ni101  1  0.16666667  0.66666667  0.09615385  1.0
  Ni  Ni102  1  0.50000000  0.00000000  0.09615385  1.0
  Ni  Ni103  1  0.50000000  0.33333333  0.09615385  1.0
  Ni  Ni104  1  0.50000000  0.66666667  0.09615385  1.0
  Ni  Ni105  1  0.83333333  0.00000000  0.09615385  1.0
  Ni  Ni106  1  0.83333333  0.33333333  0.09615385  1.0
  Ni  Ni107  1  0.83333333  0.66666667  0.09615385  1.0
  Y  Y108  1  0.00000000  0.00000000  0.21153846  1.0
  Y  Y109  1  0.00000000  0.33333333  0.21153846  1.0
  Y  Y110  1  0.00000000  0.66666667  0.21153846  1.0
  Y  Y111  1  0.33333333  0.00000000  0.21153846  1.0
  Y  Y112  1  0.33333333  0.33333333  0.21153846  1.0
  Y  Y113  1  0.33333333  0.66666667  0.21153846  1.0
  Y  Y114  1  0.66666667  0.00000000  0.21153846  1.0
  Y  Y115  1  0.66666667  0.33333333  0.21153846  1.0
  Y  Y116  1  0.66666667  0.66666667  0.21153846  1.0
  Ni  Ni117  1  0.22222222  0.00000000  0.21153846  1.0
  Ni  Ni118  1  0.22222222  0.33333333  0.21153846  1.0
  Ni  Ni119  1  0.22222222  0.66666667  0.21153846  1.0
  Ni  Ni120  1  0.55555556  0.00000000  0.21153846  1.0
  Ni  Ni121  1  0.55555556  0.33333333  0.21153846  1.0
  Ni  Ni122  1  0.55555556  0.66666667  0.21153846  1.0
  Ni  Ni123  1  0.88888889  0.00000000  0.21153846  1.0
  Ni  Ni124  1  0.88888889  0.33333333  0.21153846  1.0
  Ni  Ni125  1  0.88888889  0.66666667  0.21153846  1.0
  Ni  Ni126  1  0.11111111  0.00000000  0.21153846  1.0
  Ni  Ni127  1  0.11111111  0.33333333  0.21153846  1.0
  Ni  Ni128  1  0.11111111  0.66666667  0.21153846  1.0
  Ni  Ni129  1  0.44444444  0.00000000  0.21153846  1.0
  Ni  Ni130  1  0.44444444  0.33333333  0.21153846  1.0
  Ni  Ni131  1  0.44444444  0.66666667  0.21153846  1.0
  Ni  Ni132  1  0.77777778  0.00000000  0.21153846  1.0
  Ni  Ni133  1  0.77777778  0.33333333  0.21153846  1.0
  Ni  Ni134  1  0.77777778  0.66666667  0.21153846  1.0
  Ni  Ni135  1  0.00000000  0.16666667  0.21153846  1.0
  Ni  Ni136  1  0.00000000  0.50000000  0.21153846  1.0
  Ni  Ni137  1  0.00000000  0.83333333  0.21153846  1.0
  Ni  Ni138  1  0.33333333  0.16666667  0.21153846  1.0
  Ni  Ni139  1  0.33333333  0.50000000  0.21153846  1.0
  Ni  Ni140  1  0.33333333  0.83333333  0.21153846  1.0
  Ni  Ni141  1  0.66666667  0.16666667  0.21153846  1.0
  Ni  Ni142  1  0.66666667  0.50000000  0.21153846  1.0
  Ni  Ni143  1  0.66666667  0.83333333  0.21153846  1.0
  Ni  Ni144  1  0.16666667  0.16666667  0.21153846  1.0
  Ni  Ni145  1  0.16666667  0.50000000  0.21153846  1.0
  Ni  Ni146  1  0.16666667  0.83333333  0.21153846  1.0
  Ni  Ni147  1  0.50000000  0.16666667  0.21153846  1.0
  Ni  Ni148  1  0.50000000  0.50000000  0.21153846  1.0
  Ni  Ni149  1  0.50000000  0.83333333  0.21153846  1.0
  Ni  Ni150  1  0.83333333  0.16666667  0.21153846  1.0
  Ni  Ni151  1  0.83333333  0.50000000  0.21153846  1.0
  Ni  Ni152  1  0.83333333  0.83333333  0.21153846  1.0
  Ni  Ni153  1  0.16666667  0.00000000  0.17307692  1.0
  Ni  Ni154  1  0.16666667  0.33333333  0.17307692  1.0
  Ni  Ni155  1  0.16666667  0.66666667  0.17307692  1.0
  Ni  Ni156  1  0.50000000  0.00000000  0.17307692  1.0
  Ni  Ni157  1  0.50000000  0.33333333  0.17307692  1.0
  Ni  Ni158  1  0.50000000  0.66666667  0.17307692  1.0
  Ni  Ni159  1  0.83333333  0.00000000  0.17307692  1.0
  Ni  Ni160  1  0.83333333  0.33333333  0.17307692  1.0
  Ni  Ni161  1  0.83333333  0.66666667  0.17307692  1.0
  Y  Y162  1  0.00000000  0.00000000  0.28846154  1.0
  Y  Y163  1  0.00000000  0.33333333  0.28846154  1.0
  Y  Y164  1  0.00000000  0.66666667  0.28846154  1.0
  Y  Y165  1  0.33333333  0.00000000  0.28846154  1.0
  Y  Y166  1  0.33333333  0.33333333  0.28846154  1.0
  Y  Y167  1  0.33333333  0.66666667  0.28846154  1.0
  Y  Y168  1  0.66666667  0.00000000  0.28846154  1.0
  Y  Y169  1  0.66666667  0.33333333  0.28846154  1.0
  Y  Y170  1  0.66666667  0.66666667  0.28846154  1.0
  Ni  Ni171  1  0.22222222  0.00000000  0.28846154  1.0
  Ni  Ni172  1  0.22222222  0.33333333  0.28846154  1.0
  Ni  Ni173  1  0.22222222  0.66666667  0.28846154  1.0
  Ni  Ni174  1  0.55555556  0.00000000  0.28846154  1.0
  Ni  Ni175  1  0.55555556  0.33333333  0.28846154  1.0
  Ni  Ni176  1  0.55555556  0.66666667  0.28846154  1.0
  Ni  Ni177  1  0.88888889  0.00000000  0.28846154  1.0
  Ni  Ni178  1  0.88888889  0.33333333  0.28846154  1.0
  Ni  Ni179  1  0.88888889  0.66666667  0.28846154  1.0
  Ni  Ni180  1  0.11111111  0.00000000  0.28846154  1.0
  Ni  Ni181  1  0.11111111  0.33333333  0.28846154  1.0
  Ni  Ni182  1  0.11111111  0.66666667  0.28846154  1.0
  Ni  Ni183  1  0.44444444  0.00000000  0.28846154  1.0
  Ni  Ni184  1  0.44444444  0.33333333  0.28846154  1.0
  Ni  Ni185  1  0.44444444  0.66666667  0.28846154  1.0
  Ni  Ni186  1  0.77777778  0.00000000  0.28846154  1.0
  Ni  Ni187  1  0.77777778  0.33333333  0.28846154  1.0
  Ni  Ni188  1  0.77777778  0.66666667  0.28846154  1.0
  Ni  Ni189  1  0.00000000  0.16666667  0.28846154  1.0
  Ni  Ni190  1  0.00000000  0.50000000  0.28846154  1.0
  Ni  Ni191  1  0.00000000  0.83333333  0.28846154  1.0
  Ni  Ni192  1  0.33333333  0.16666667  0.28846154  1.0
  Ni  Ni193  1  0.33333333  0.50000000  0.28846154  1.0
  Ni  Ni194  1  0.33333333  0.83333333  0.28846154  1.0
  Ni  Ni195  1  0.66666667  0.16666667  0.28846154  1.0
  Ni  Ni196  1  0.66666667  0.50000000  0.28846154  1.0
  Ni  Ni197  1  0.66666667  0.83333333  0.28846154  1.0
  Ni  Ni198  1  0.16666667  0.16666667  0.28846154  1.0
  Ni  Ni199  1  0.16666667  0.50000000  0.28846154  1.0
  Ni  Ni200  1  0.16666667  0.83333333  0.28846154  1.0
  Ni  Ni201  1  0.50000000  0.16666667  0.28846154  1.0
  Ni  Ni202  1  0.50000000  0.50000000  0.28846154  1.0
  Ni  Ni203  1  0.50000000  0.83333333  0.28846154  1.0
  Ni  Ni204  1  0.83333333  0.16666667  0.28846154  1.0
  Ni  Ni205  1  0.83333333  0.50000000  0.28846154  1.0
  Ni  Ni206  1  0.83333333  0.83333333  0.28846154  1.0
  Ni  Ni207  1  0.16666667  0.00000000  0.25000000  1.0
  Ni  Ni208  1  0.16666667  0.33333333  0.25000000  1.0
  Ni  Ni209  1  0.16666667  0.66666667  0.25000000  1.0
  Ni  Ni210  1  0.50000000  0.00000000  0.25000000  1.0
  Ni  Ni211  1  0.50000000  0.33333333  0.25000000  1.0
  Ni  Ni212  1  0.50000000  0.66666667  0.25000000  1.0
  Ni  Ni213  1  0.83333333  0.00000000  0.25000000  1.0
  Ni  Ni214  1  0.83333333  0.33333333  0.25000000  1.0
  Ni  Ni215  1  0.83333333  0.66666667  0.25000000  1.0
  Y  Y216  1  0.00000000  0.00000000  0.36538462  1.0
  Y  Y217  1  0.00000000  0.33333333  0.36538462  1.0
  Y  Y218  1  0.00000000  0.66666667  0.36538462  1.0
  Y  Y219  1  0.33333333  0.00000000  0.36538462  1.0
  Y  Y220  1  0.33333333  0.33333333  0.36538462  1.0
  Y  Y221  1  0.33333333  0.66666667  0.36538462  1.0
  Y  Y222  1  0.66666667  0.00000000  0.36538462  1.0
  Y  Y223  1  0.66666667  0.33333333  0.36538462  1.0
  Y  Y224  1  0.66666667  0.66666667  0.36538462  1.0
  Ni  Ni225  1  0.22222222  0.00000000  0.36538462  1.0
  Ni  Ni226  1  0.22222222  0.33333333  0.36538462  1.0
  Ni  Ni227  1  0.22222222  0.66666667  0.36538462  1.0
  Ni  Ni228  1  0.55555556  0.00000000  0.36538462  1.0
  Ni  Ni229  1  0.55555556  0.33333333  0.36538462  1.0
  Ni  Ni230  1  0.55555556  0.66666667  0.36538462  1.0
  Ni  Ni231  1  0.88888889  0.00000000  0.36538462  1.0
  Ni  Ni232  1  0.88888889  0.33333333  0.36538462  1.0
  Ni  Ni233  1  0.88888889  0.66666667  0.36538462  1.0
  Ni  Ni234  1  0.11111111  0.00000000  0.36538462  1.0
  Ni  Ni235  1  0.11111111  0.33333333  0.36538462  1.0
  Ni  Ni236  1  0.11111111  0.66666667  0.36538462  1.0
  Ni  Ni237  1  0.44444444  0.00000000  0.36538462  1.0
  Ni  Ni238  1  0.44444444  0.33333333  0.36538462  1.0
  Ni  Ni239  1  0.44444444  0.66666667  0.36538462  1.0
  Ni  Ni240  1  0.77777778  0.00000000  0.36538462  1.0
  Ni  Ni241  1  0.77777778  0.33333333  0.36538462  1.0
  Ni  Ni242  1  0.77777778  0.66666667  0.36538462  1.0
  Ni  Ni243  1  0.00000000  0.16666667  0.36538462  1.0
  Ni  Ni244  1  0.00000000  0.50000000  0.36538462  1.0
  Ni  Ni245  1  0.00000000  0.83333333  0.36538462  1.0
  Ni  Ni246  1  0.33333333  0.16666667  0.36538462  1.0
  Ni  Ni247  1  0.33333333  0.50000000  0.36538462  1.0
  Ni  Ni248  1  0.33333333  0.83333333  0.36538462  1.0
  Ni  Ni249  1  0.66666667  0.16666667  0.36538462  1.0
  Ni  Ni250  1  0.66666667  0.50000000  0.36538462  1.0
  Ni  Ni251  1  0.66666667  0.83333333  0.36538462  1.0
  Ni  Ni252  1  0.16666667  0.16666667  0.36538462  1.0
  Ni  Ni253  1  0.16666667  0.50000000  0.36538462  1.0
  Ni  Ni254  1  0.16666667  0.83333333  0.36538462  1.0
  Ni  Ni255  1  0.50000000  0.16666667  0.36538462  1.0
  Ni  Ni256  1  0.50000000  0.50000000  0.36538462  1.0
  Ni  Ni257  1  0.50000000  0.83333333  0.36538462  1.0
  Ni  Ni258  1  0.83333333  0.16666667  0.36538462  1.0
  Ni  Ni259  1  0.83333333  0.50000000  0.36538462  1.0
  Ni  Ni260  1  0.83333333  0.83333333  0.36538462  1.0
  Ni  Ni261  1  0.16666667  0.00000000  0.32692308  1.0
  Ni  Ni262  1  0.16666667  0.33333333  0.32692308  1.0
  Ni  Ni263  1  0.16666667  0.66666667  0.32692308  1.0
  Ni  Ni264  1  0.50000000  0.00000000  0.32692308  1.0
  Ni  Ni265  1  0.50000000  0.33333333  0.32692308  1.0
  Ni  Ni266  1  0.50000000  0.66666667  0.32692308  1.0
  Ni  Ni267  1  0.83333333  0.00000000  0.32692308  1.0
  Ni  Ni268  1  0.83333333  0.33333333  0.32692308  1.0
  Ni  Ni269  1  0.83333333  0.66666667  0.32692308  1.0
