# generated using pymatgen
data_YNi
_symmetry_space_group_name_H-M   'P 1'
_cell_length_a   29.74615002
_cell_length_b   32.77105345
_cell_length_c   38.37001700
_cell_angle_alpha   90.00000000
_cell_angle_beta   56.43924643
_cell_angle_gamma   50.92817649
_symmetry_Int_Tables_number   1
_chemical_formula_structural   YNi
_chemical_formula_sum   'Y216 Ni216'
_cell_volume   20388.15609362
_cell_formula_units_Z   216
loop_
 _symmetry_equiv_pos_site_id
 _symmetry_equiv_pos_as_xyz
  1  'x, y, z'
loop_
 _atom_site_type_symbol
 _atom_site_label
 _atom_site_symmetry_multiplicity
 _atom_site_fract_x
 _atom_site_fract_y
 _atom_site_fract_z
 _atom_site_occupancy
  Y  Y0  1  0.10158700  0.27341300  0.06539507  1.0
  Y  Y1  1  0.10158700  0.60674633  0.06539507  1.0
  Y  Y2  1  0.10158700  0.94007967  0.06539507  1.0
  Y  Y3  1  0.43492033  0.27341300  0.06539507  1.0
  Y  Y4  1  0.43492033  0.60674633  0.06539507  1.0
  Y  Y5  1  0.43492033  0.94007967  0.06539507  1.0
  Y  Y6  1  0.76825367  0.27341300  0.06539507  1.0
  Y  Y7  1  0.76825367  0.60674633  0.06539507  1.0
  Y  Y8  1  0.76825367  0.94007967  0.06539507  1.0
  Y  Y9  1  0.26825367  0.27341300  0.13682364  1.0
  Y  Y10  1  0.26825367  0.60674633  0.13682364  1.0
  Y  Y11  1  0.26825367  0.94007967  0.13682364  1.0
  Y  Y12  1  0.60158700  0.27341300  0.13682364  1.0
  Y  Y13  1  0.60158700  0.60674633  0.13682364  1.0
  Y  Y14  1  0.60158700  0.94007967  0.13682364  1.0
  Y  Y15  1  0.93492033  0.27341300  0.13682364  1.0
  Y  Y16  1  0.93492033  0.60674633  0.13682364  1.0
  Y  Y17  1  0.93492033  0.94007967  0.13682364  1.0
  Y  Y18  1  0.23174633  0.22658700  0.08104107  1.0
  Y  Y19  1  0.23174633  0.55992033  0.08104107  1.0
  Y  Y20  1  0.23174633  0.89325367  0.08104107  1.0
  Y  Y21  1  0.56507967  0.22658700  0.08104107  1.0
  Y  Y22  1  0.56507967  0.55992033  0.08104107  1.0
  Y  Y23  1  0.56507967  0.89325367  0.08104107  1.0
  Y  Y24  1  0.89841300  0.22658700  0.08104107  1.0
  Y  Y25  1  0.89841300  0.55992033  0.08104107  1.0
  Y  Y26  1  0.89841300  0.89325367  0.08104107  1.0
  Y  Y27  1  0.06507967  0.22658700  0.00961250  1.0
  Y  Y28  1  0.06507967  0.55992033  0.00961250  1.0
  Y  Y29  1  0.06507967  0.89325367  0.00961250  1.0
  Y  Y30  1  0.39841300  0.22658700  0.00961250  1.0
  Y  Y31  1  0.39841300  0.55992033  0.00961250  1.0
  Y  Y32  1  0.39841300  0.89325367  0.00961250  1.0
  Y  Y33  1  0.73174633  0.22658700  0.00961250  1.0
  Y  Y34  1  0.73174633  0.55992033  0.00961250  1.0
  Y  Y35  1  0.73174633  0.89325367  0.00961250  1.0
  Y  Y36  1  0.06507967  0.05992033  0.11876793  1.0
  Y  Y37  1  0.06507967  0.39325367  0.11876793  1.0
  Y  Y38  1  0.06507967  0.72658700  0.11876793  1.0
  Y  Y39  1  0.39841300  0.05992033  0.11876793  1.0
  Y  Y40  1  0.39841300  0.39325367  0.11876793  1.0
  Y  Y41  1  0.39841300  0.72658700  0.11876793  1.0
  Y  Y42  1  0.73174633  0.05992033  0.11876793  1.0
  Y  Y43  1  0.73174633  0.39325367  0.11876793  1.0
  Y  Y44  1  0.73174633  0.72658700  0.11876793  1.0
  Y  Y45  1  0.23174633  0.05992033  0.04733936  1.0
  Y  Y46  1  0.23174633  0.39325367  0.04733936  1.0
  Y  Y47  1  0.23174633  0.72658700  0.04733936  1.0
  Y  Y48  1  0.56507967  0.05992033  0.04733936  1.0
  Y  Y49  1  0.56507967  0.39325367  0.04733936  1.0
  Y  Y50  1  0.56507967  0.72658700  0.04733936  1.0
  Y  Y51  1  0.89841300  0.05992033  0.04733936  1.0
  Y  Y52  1  0.89841300  0.39325367  0.04733936  1.0
  Y  Y53  1  0.89841300  0.72658700  0.04733936  1.0
  Y  Y54  1  0.26825367  0.10674633  0.10312193  1.0
  Y  Y55  1  0.26825367  0.44007967  0.10312193  1.0
  Y  Y56  1  0.26825367  0.77341300  0.10312193  1.0
  Y  Y57  1  0.60158700  0.10674633  0.10312193  1.0
  Y  Y58  1  0.60158700  0.44007967  0.10312193  1.0
  Y  Y59  1  0.60158700  0.77341300  0.10312193  1.0
  Y  Y60  1  0.93492033  0.10674633  0.10312193  1.0
  Y  Y61  1  0.93492033  0.44007967  0.10312193  1.0
  Y  Y62  1  0.93492033  0.77341300  0.10312193  1.0
  Y  Y63  1  0.10158700  0.10674633  0.03169336  1.0
  Y  Y64  1  0.10158700  0.44007967  0.03169336  1.0
  Y  Y65  1  0.10158700  0.77341300  0.03169336  1.0
  Y  Y66  1  0.43492033  0.10674633  0.03169336  1.0
  Y  Y67  1  0.43492033  0.44007967  0.03169336  1.0
  Y  Y68  1  0.43492033  0.77341300  0.03169336  1.0
  Y  Y69  1  0.76825367  0.10674633  0.03169336  1.0
  Y  Y70  1  0.76825367  0.44007967  0.03169336  1.0
  Y  Y71  1  0.76825367  0.77341300  0.03169336  1.0
  Ni  Ni72  1  0.05369267  0.32130733  0.01579379  1.0
  Ni  Ni73  1  0.05369267  0.65464067  0.01579379  1.0
  Ni  Ni74  1  0.05369267  0.98797400  0.01579379  1.0
  Ni  Ni75  1  0.38702600  0.32130733  0.01579379  1.0
  Ni  Ni76  1  0.38702600  0.65464067  0.01579379  1.0
  Ni  Ni77  1  0.38702600  0.98797400  0.01579379  1.0
  Ni  Ni78  1  0.72035933  0.32130733  0.01579379  1.0
  Ni  Ni79  1  0.72035933  0.65464067  0.01579379  1.0
  Ni  Ni80  1  0.72035933  0.98797400  0.01579379  1.0
  Ni  Ni81  1  0.22035933  0.32130733  0.08722236  1.0
  Ni  Ni82  1  0.22035933  0.65464067  0.08722236  1.0
  Ni  Ni83  1  0.22035933  0.98797400  0.08722236  1.0
  Ni  Ni84  1  0.55369267  0.32130733  0.08722236  1.0
  Ni  Ni85  1  0.55369267  0.65464067  0.08722236  1.0
  Ni  Ni86  1  0.55369267  0.98797400  0.08722236  1.0
  Ni  Ni87  1  0.88702600  0.32130733  0.08722236  1.0
  Ni  Ni88  1  0.88702600  0.65464067  0.08722236  1.0
  Ni  Ni89  1  0.88702600  0.98797400  0.08722236  1.0
  Ni  Ni90  1  0.27964067  0.17869267  0.13324464  1.0
  Ni  Ni91  1  0.27964067  0.51202600  0.13324464  1.0
  Ni  Ni92  1  0.27964067  0.84535933  0.13324464  1.0
  Ni  Ni93  1  0.61297400  0.17869267  0.13324464  1.0
  Ni  Ni94  1  0.61297400  0.51202600  0.13324464  1.0
  Ni  Ni95  1  0.61297400  0.84535933  0.13324464  1.0
  Ni  Ni96  1  0.94630733  0.17869267  0.13324464  1.0
  Ni  Ni97  1  0.94630733  0.51202600  0.13324464  1.0
  Ni  Ni98  1  0.94630733  0.84535933  0.13324464  1.0
  Ni  Ni99  1  0.11297400  0.17869267  0.06181607  1.0
  Ni  Ni100  1  0.11297400  0.51202600  0.06181607  1.0
  Ni  Ni101  1  0.11297400  0.84535933  0.06181607  1.0
  Ni  Ni102  1  0.44630733  0.17869267  0.06181607  1.0
  Ni  Ni103  1  0.44630733  0.51202600  0.06181607  1.0
  Ni  Ni104  1  0.44630733  0.84535933  0.06181607  1.0
  Ni  Ni105  1  0.77964067  0.17869267  0.06181607  1.0
  Ni  Ni106  1  0.77964067  0.51202600  0.06181607  1.0
  Ni  Ni107  1  0.77964067  0.84535933  0.06181607  1.0
  Ni  Ni108  1  0.11297400  0.01202600  0.02551207  1.0
  Ni  Ni109  1  0.11297400  0.34535933  0.02551207  1.0
  Ni  Ni110  1  0.11297400  0.67869267  0.02551207  1.0
  Ni  Ni111  1  0.44630733  0.01202600  0.02551207  1.0
  Ni  Ni112  1  0.44630733  0.34535933  0.02551207  1.0
  Ni  Ni113  1  0.44630733  0.67869267  0.02551207  1.0
  Ni  Ni114  1  0.77964067  0.01202600  0.02551207  1.0
  Ni  Ni115  1  0.77964067  0.34535933  0.02551207  1.0
  Ni  Ni116  1  0.77964067  0.67869267  0.02551207  1.0
  Ni  Ni117  1  0.27964067  0.01202600  0.09694064  1.0
  Ni  Ni118  1  0.27964067  0.34535933  0.09694064  1.0
  Ni  Ni119  1  0.27964067  0.67869267  0.09694064  1.0
  Ni  Ni120  1  0.61297400  0.01202600  0.09694064  1.0
  Ni  Ni121  1  0.61297400  0.34535933  0.09694064  1.0
  Ni  Ni122  1  0.61297400  0.67869267  0.09694064  1.0
  Ni  Ni123  1  0.94630733  0.01202600  0.09694064  1.0
  Ni  Ni124  1  0.94630733  0.34535933  0.09694064  1.0
  Ni  Ni125  1  0.94630733  0.67869267  0.09694064  1.0
  Ni  Ni126  1  0.22035933  0.15464067  0.05091836  1.0
  Ni  Ni127  1  0.22035933  0.48797400  0.05091836  1.0
  Ni  Ni128  1  0.22035933  0.82130733  0.05091836  1.0
  Ni  Ni129  1  0.55369267  0.15464067  0.05091836  1.0
  Ni  Ni130  1  0.55369267  0.48797400  0.05091836  1.0
  Ni  Ni131  1  0.55369267  0.82130733  0.05091836  1.0
  Ni  Ni132  1  0.88702600  0.15464067  0.05091836  1.0
  Ni  Ni133  1  0.88702600  0.48797400  0.05091836  1.0
  Ni  Ni134  1  0.88702600  0.82130733  0.05091836  1.0
  Ni  Ni135  1  0.05369267  0.15464067  0.12234693  1.0
  Ni  Ni136  1  0.05369267  0.48797400  0.12234693  1.0
  Ni  Ni137  1  0.05369267  0.82130733  0.12234693  1.0
  Ni  Ni138  1  0.38702600  0.15464067  0.12234693  1.0
  Ni  Ni139  1  0.38702600  0.48797400  0.12234693  1.0
  Ni  Ni140  1  0.38702600  0.82130733  0.12234693  1.0
  Ni  Ni141  1  0.72035933  0.15464067  0.12234693  1.0
  Ni  Ni142  1  0.72035933  0.48797400  0.12234693  1.0
  Ni  Ni143  1  0.72035933  0.82130733  0.12234693  1.0
  Y  Y144  1  0.10158700  0.27341300  0.20825221  1.0
  Y  Y145  1  0.10158700  0.60674633  0.20825221  1.0
  Y  Y146  1  0.10158700  0.94007967  0.20825221  1.0
  Y  Y147  1  0.43492033  0.27341300  0.20825221  1.0
  Y  Y148  1  0.43492033  0.60674633  0.20825221  1.0
  Y  Y149  1  0.43492033  0.94007967  0.20825221  1.0
  Y  Y150  1  0.76825367  0.27341300  0.20825221  1.0
  Y  Y151  1  0.76825367  0.60674633  0.20825221  1.0
  Y  Y152  1  0.76825367  0.94007967  0.20825221  1.0
  Y  Y153  1  0.26825367  0.27341300  0.27968079  1.0
  Y  Y154  1  0.26825367  0.60674633  0.27968079  1.0
  Y  Y155  1  0.26825367  0.94007967  0.27968079  1.0
  Y  Y156  1  0.60158700  0.27341300  0.27968079  1.0
  Y  Y157  1  0.60158700  0.60674633  0.27968079  1.0
  Y  Y158  1  0.60158700  0.94007967  0.27968079  1.0
  Y  Y159  1  0.93492033  0.27341300  0.27968079  1.0
  Y  Y160  1  0.93492033  0.60674633  0.27968079  1.0
  Y  Y161  1  0.93492033  0.94007967  0.27968079  1.0
  Y  Y162  1  0.23174633  0.22658700  0.22389821  1.0
  Y  Y163  1  0.23174633  0.55992033  0.22389821  1.0
  Y  Y164  1  0.23174633  0.89325367  0.22389821  1.0
  Y  Y165  1  0.56507967  0.22658700  0.22389821  1.0
  Y  Y166  1  0.56507967  0.55992033  0.22389821  1.0
  Y  Y167  1  0.56507967  0.89325367  0.22389821  1.0
  Y  Y168  1  0.89841300  0.22658700  0.22389821  1.0
  Y  Y169  1  0.89841300  0.55992033  0.22389821  1.0
  Y  Y170  1  0.89841300  0.89325367  0.22389821  1.0
  Y  Y171  1  0.06507967  0.22658700  0.15246964  1.0
  Y  Y172  1  0.06507967  0.55992033  0.15246964  1.0
  Y  Y173  1  0.06507967  0.89325367  0.15246964  1.0
  Y  Y174  1  0.39841300  0.22658700  0.15246964  1.0
  Y  Y175  1  0.39841300  0.55992033  0.15246964  1.0
  Y  Y176  1  0.39841300  0.89325367  0.15246964  1.0
  Y  Y177  1  0.73174633  0.22658700  0.15246964  1.0
  Y  Y178  1  0.73174633  0.55992033  0.15246964  1.0
  Y  Y179  1  0.73174633  0.89325367  0.15246964  1.0
  Y  Y180  1  0.06507967  0.05992033  0.26162507  1.0
  Y  Y181  1  0.06507967  0.39325367  0.26162507  1.0
  Y  Y182  1  0.06507967  0.72658700  0.26162507  1.0
  Y  Y183  1  0.39841300  0.05992033  0.26162507  1.0
  Y  Y184  1  0.39841300  0.39325367  0.26162507  1.0
  Y  Y185  1  0.39841300  0.72658700  0.26162507  1.0
  Y  Y186  1  0.73174633  0.05992033  0.26162507  1.0
  Y  Y187  1  0.73174633  0.39325367  0.26162507  1.0
  Y  Y188  1  0.73174633  0.72658700  0.26162507  1.0
  Y  Y189  1  0.23174633  0.05992033  0.19019650  1.0
  Y  Y190  1  0.23174633  0.39325367  0.19019650  1.0
  Y  Y191  1  0.23174633  0.72658700  0.19019650  1.0
  Y  Y192  1  0.56507967  0.05992033  0.19019650  1.0
  Y  Y193  1  0.56507967  0.39325367  0.19019650  1.0
  Y  Y194  1  0.56507967  0.72658700  0.19019650  1.0
  Y  Y195  1  0.89841300  0.05992033  0.19019650  1.0
  Y  Y196  1  0.89841300  0.39325367  0.19019650  1.0
  Y  Y197  1  0.89841300  0.72658700  0.19019650  1.0
  Y  Y198  1  0.26825367  0.10674633  0.24597907  1.0
  Y  Y199  1  0.26825367  0.44007967  0.24597907  1.0
  Y  Y200  1  0.26825367  0.77341300  0.24597907  1.0
  Y  Y201  1  0.60158700  0.10674633  0.24597907  1.0
  Y  Y202  1  0.60158700  0.44007967  0.24597907  1.0
  Y  Y203  1  0.60158700  0.77341300  0.24597907  1.0
  Y  Y204  1  0.93492033  0.10674633  0.24597907  1.0
  Y  Y205  1  0.93492033  0.44007967  0.24597907  1.0
  Y  Y206  1  0.93492033  0.77341300  0.24597907  1.0
  Y  Y207  1  0.10158700  0.10674633  0.17455050  1.0
  Y  Y208  1  0.10158700  0.44007967  0.17455050  1.0
  Y  Y209  1  0.10158700  0.77341300  0.17455050  1.0
  Y  Y210  1  0.43492033  0.10674633  0.17455050  1.0
  Y  Y211  1  0.43492033  0.44007967  0.17455050  1.0
  Y  Y212  1  0.43492033  0.77341300  0.17455050  1.0
  Y  Y213  1  0.76825367  0.10674633  0.17455050  1.0
  Y  Y214  1  0.76825367  0.44007967  0.17455050  1.0
  Y  Y215  1  0.76825367  0.77341300  0.17455050  1.0
  Ni  Ni216  1  0.05369267  0.32130733  0.15865093  1.0
  Ni  Ni217  1  0.05369267  0.65464067  0.15865093  1.0
  Ni  Ni218  1  0.05369267  0.98797400  0.15865093  1.0
  Ni  Ni219  1  0.38702600  0.32130733  0.15865093  1.0
  Ni  Ni220  1  0.38702600  0.65464067  0.15865093  1.0
  Ni  Ni221  1  0.38702600  0.98797400  0.15865093  1.0
  Ni  Ni222  1  0.72035933  0.32130733  0.15865093  1.0
  Ni  Ni223  1  0.72035933  0.65464067  0.15865093  1.0
  Ni  Ni224  1  0.72035933  0.98797400  0.15865093  1.0
  Ni  Ni225  1  0.22035933  0.32130733  0.23007950  1.0
  Ni  Ni226  1  0.22035933  0.65464067  0.23007950  1.0
  Ni  Ni227  1  0.22035933  0.98797400  0.23007950  1.0
  Ni  Ni228  1  0.55369267  0.32130733  0.23007950  1.0
  Ni  Ni229  1  0.55369267  0.65464067  0.23007950  1.0
  Ni  Ni230  1  0.55369267  0.98797400  0.23007950  1.0
  Ni  Ni231  1  0.88702600  0.32130733  0.23007950  1.0
  Ni  Ni232  1  0.88702600  0.65464067  0.23007950  1.0
  Ni  Ni233  1  0.88702600  0.98797400  0.23007950  1.0
  Ni  Ni234  1  0.27964067  0.17869267  0.27610179  1.0
  Ni  Ni235  1  0.27964067  0.51202600  0.27610179  1.0
  Ni  Ni236  1  0.27964067  0.84535933  0.27610179  1.0
  Ni  Ni237  1  0.61297400  0.17869267  0.27610179  1.0
  Ni  Ni238  1  0.61297400  0.51202600  0.27610179  1.0
  Ni  Ni239  1  0.61297400  0.84535933  0.27610179  1.0
  Ni  Ni240  1  0.94630733  0.17869267  0.27610179  1.0
  Ni  Ni241  1  0.94630733  0.51202600  0.27610179  1.0
  Ni  Ni242  1  0.94630733  0.84535933  0.27610179  1.0
  Ni  Ni243  1  0.11297400  0.17869267  0.20467321  1.0
  Ni  Ni244  1  0.11297400  0.51202600  0.20467321  1.0
  Ni  Ni245  1  0.11297400  0.84535933  0.20467321  1.0
  Ni  Ni246  1  0.44630733  0.17869267  0.20467321  1.0
  Ni  Ni247  1  0.44630733  0.51202600  0.20467321  1.0
  Ni  Ni248  1  0.44630733  0.84535933  0.20467321  1.0
  Ni  Ni249  1  0.77964067  0.17869267  0.20467321  1.0
  Ni  Ni250  1  0.77964067  0.51202600  0.20467321  1.0
  Ni  Ni251  1  0.77964067  0.84535933  0.20467321  1.0
  Ni  Ni252  1  0.11297400  0.01202600  0.16836921  1.0
  Ni  Ni253  1  0.11297400  0.34535933  0.16836921  1.0
  Ni  Ni254  1  0.11297400  0.67869267  0.16836921  1.0
  Ni  Ni255  1  0.44630733  0.01202600  0.16836921  1.0
  Ni  Ni256  1  0.44630733  0.34535933  0.16836921  1.0
  Ni  Ni257  1  0.44630733  0.67869267  0.16836921  1.0
  Ni  Ni258  1  0.77964067  0.01202600  0.16836921  1.0
  Ni  Ni259  1  0.77964067  0.34535933  0.16836921  1.0
  Ni  Ni260  1  0.77964067  0.67869267  0.16836921  1.0
  Ni  Ni261  1  0.27964067  0.01202600  0.23979779  1.0
  Ni  Ni262  1  0.27964067  0.34535933  0.23979779  1.0
  Ni  Ni263  1  0.27964067  0.67869267  0.23979779  1.0
  Ni  Ni264  1  0.61297400  0.01202600  0.23979779  1.0
  Ni  Ni265  1  0.61297400  0.34535933  0.23979779  1.0
  Ni  Ni266  1  0.61297400  0.67869267  0.23979779  1.0
  Ni  Ni267  1  0.94630733  0.01202600  0.23979779  1.0
  Ni  Ni268  1  0.94630733  0.34535933  0.23979779  1.0
  Ni  Ni269  1  0.94630733  0.67869267  0.23979779  1.0
  Ni  Ni270  1  0.22035933  0.15464067  0.19377550  1.0
  Ni  Ni271  1  0.22035933  0.48797400  0.19377550  1.0
  Ni  Ni272  1  0.22035933  0.82130733  0.19377550  1.0
  Ni  Ni273  1  0.55369267  0.15464067  0.19377550  1.0
  Ni  Ni274  1  0.55369267  0.48797400  0.19377550  1.0
  Ni  Ni275  1  0.55369267  0.82130733  0.19377550  1.0
  Ni  Ni276  1  0.88702600  0.15464067  0.19377550  1.0
  Ni  Ni277  1  0.88702600  0.48797400  0.19377550  1.0
  Ni  Ni278  1  0.88702600  0.82130733  0.19377550  1.0
  Ni  Ni279  1  0.05369267  0.15464067  0.26520407  1.0
  Ni  Ni280  1  0.05369267  0.48797400  0.26520407  1.0
  Ni  Ni281  1  0.05369267  0.82130733  0.26520407  1.0
  Ni  Ni282  1  0.38702600  0.15464067  0.26520407  1.0
  Ni  Ni283  1  0.38702600  0.48797400  0.26520407  1.0
  Ni  Ni284  1  0.38702600  0.82130733  0.26520407  1.0
  Ni  Ni285  1  0.72035933  0.15464067  0.26520407  1.0
  Ni  Ni286  1  0.72035933  0.48797400  0.26520407  1.0
  Ni  Ni287  1  0.72035933  0.82130733  0.26520407  1.0
  Y  Y288  1  0.10158700  0.27341300  0.35110936  1.0
  Y  Y289  1  0.10158700  0.60674633  0.35110936  1.0
  Y  Y290  1  0.10158700  0.94007967  0.35110936  1.0
  Y  Y291  1  0.43492033  0.27341300  0.35110936  1.0
  Y  Y292  1  0.43492033  0.60674633  0.35110936  1.0
  Y  Y293  1  0.43492033  0.94007967  0.35110936  1.0
  Y  Y294  1  0.76825367  0.27341300  0.35110936  1.0
  Y  Y295  1  0.76825367  0.60674633  0.35110936  1.0
  Y  Y296  1  0.76825367  0.94007967  0.35110936  1.0
  Y  Y297  1  0.26825367  0.27341300  0.42253793  1.0
  Y  Y298  1  0.26825367  0.60674633  0.42253793  1.0
  Y  Y299  1  0.26825367  0.94007967  0.42253793  1.0
  Y  Y300  1  0.60158700  0.27341300  0.42253793  1.0
  Y  Y301  1  0.60158700  0.60674633  0.42253793  1.0
  Y  Y302  1  0.60158700  0.94007967  0.42253793  1.0
  Y  Y303  1  0.93492033  0.27341300  0.42253793  1.0
  Y  Y304  1  0.93492033  0.60674633  0.42253793  1.0
  Y  Y305  1  0.93492033  0.94007967  0.42253793  1.0
  Y  Y306  1  0.23174633  0.22658700  0.36675536  1.0
  Y  Y307  1  0.23174633  0.55992033  0.36675536  1.0
  Y  Y308  1  0.23174633  0.89325367  0.36675536  1.0
  Y  Y309  1  0.56507967  0.22658700  0.36675536  1.0
  Y  Y310  1  0.56507967  0.55992033  0.36675536  1.0
  Y  Y311  1  0.56507967  0.89325367  0.36675536  1.0
  Y  Y312  1  0.89841300  0.22658700  0.36675536  1.0
  Y  Y313  1  0.89841300  0.55992033  0.36675536  1.0
  Y  Y314  1  0.89841300  0.89325367  0.36675536  1.0
  Y  Y315  1  0.06507967  0.22658700  0.29532679  1.0
  Y  Y316  1  0.06507967  0.55992033  0.29532679  1.0
  Y  Y317  1  0.06507967  0.89325367  0.29532679  1.0
  Y  Y318  1  0.39841300  0.22658700  0.29532679  1.0
  Y  Y319  1  0.39841300  0.55992033  0.29532679  1.0
  Y  Y320  1  0.39841300  0.89325367  0.29532679  1.0
  Y  Y321  1  0.73174633  0.22658700  0.29532679  1.0
  Y  Y322  1  0.73174633  0.55992033  0.29532679  1.0
  Y  Y323  1  0.73174633  0.89325367  0.29532679  1.0
  Y  Y324  1  0.06507967  0.05992033  0.40448221  1.0
  Y  Y325  1  0.06507967  0.39325367  0.40448221  1.0
  Y  Y326  1  0.06507967  0.72658700  0.40448221  1.0
  Y  Y327  1  0.39841300  0.05992033  0.40448221  1.0
  Y  Y328  1  0.39841300  0.39325367  0.40448221  1.0
  Y  Y329  1  0.39841300  0.72658700  0.40448221  1.0
  Y  Y330  1  0.73174633  0.05992033  0.40448221  1.0
  Y  Y331  1  0.73174633  0.39325367  0.40448221  1.0
  Y  Y332  1  0.73174633  0.72658700  0.40448221  1.0
  Y  Y333  1  0.23174633  0.05992033  0.33305364  1.0
  Y  Y334  1  0.23174633  0.39325367  0.33305364  1.0
  Y  Y335  1  0.23174633  0.72658700  0.33305364  1.0
  Y  Y336  1  0.56507967  0.05992033  0.33305364  1.0
  Y  Y337  1  0.56507967  0.39325367  0.33305364  1.0
  Y  Y338  1  0.56507967  0.72658700  0.33305364  1.0
  Y  Y339  1  0.89841300  0.05992033  0.33305364  1.0
  Y  Y340  1  0.89841300  0.39325367  0.33305364  1.0
  Y  Y341  1  0.89841300  0.72658700  0.33305364  1.0
  Y  Y342  1  0.26825367  0.10674633  0.38883621  1.0
  Y  Y343  1  0.26825367  0.44007967  0.38883621  1.0
  Y  Y344  1  0.26825367  0.77341300  0.38883621  1.0
  Y  Y345  1  0.60158700  0.10674633  0.38883621  1.0
  Y  Y346  1  0.60158700  0.44007967  0.38883621  1.0
  Y  Y347  1  0.60158700  0.77341300  0.38883621  1.0
  Y  Y348  1  0.93492033  0.10674633  0.38883621  1.0
  Y  Y349  1  0.93492033  0.44007967  0.38883621  1.0
  Y  Y350  1  0.93492033  0.77341300  0.38883621  1.0
  Y  Y351  1  0.10158700  0.10674633  0.31740764  1.0
  Y  Y352  1  0.10158700  0.44007967  0.31740764  1.0
  Y  Y353  1  0.10158700  0.77341300  0.31740764  1.0
  Y  Y354  1  0.43492033  0.10674633  0.31740764  1.0
  Y  Y355  1  0.43492033  0.44007967  0.31740764  1.0
  Y  Y356  1  0.43492033  0.77341300  0.31740764  1.0
  Y  Y357  1  0.76825367  0.10674633  0.31740764  1.0
  Y  Y358  1  0.76825367  0.44007967  0.31740764  1.0
  Y  Y359  1  0.76825367  0.77341300  0.31740764  1.0
  Ni  Ni360  1  0.05369267  0.32130733  0.30150807  1.0
  Ni  Ni361  1  0.05369267  0.65464067  0.30150807  1.0
  Ni  Ni362  1  0.05369267  0.98797400  0.30150807  1.0
  Ni  Ni363  1  0.38702600  0.32130733  0.30150807  1.0
  Ni  Ni364  1  0.38702600  0.65464067  0.30150807  1.0
  Ni  Ni365  1  0.38702600  0.98797400  0.30150807  1.0
  Ni  Ni366  1  0.72035933  0.32130733  0.30150807  1.0
  Ni  Ni367  1  0.72035933  0.65464067  0.30150807  1.0
  Ni  Ni368  1  0.72035933  0.98797400  0.30150807  1.0
  Ni  Ni369  1  0.22035933  0.32130733  0.37293664  1.0
  Ni  Ni370  1  0.22035933  0.65464067  0.37293664  1.0
  Ni  Ni371  1  0.22035933  0.98797400  0.37293664  1.0
  Ni  Ni372  1  0.55369267  0.32130733  0.37293664  1.0
  Ni  Ni373  1  0.55369267  0.65464067  0.37293664  1.0
  Ni  Ni374  1  0.55369267  0.98797400  0.37293664  1.0
  Ni  Ni375  1  0.88702600  0.32130733  0.37293664  1.0
  Ni  Ni376  1  0.88702600  0.65464067  0.37293664  1.0
  Ni  Ni377  1  0.88702600  0.98797400  0.37293664  1.0
  Ni  Ni378  1  0.27964067  0.17869267  0.41895893  1.0
  Ni  Ni379  1  0.27964067  0.51202600  0.41895893  1.0
  Ni  Ni380  1  0.27964067  0.84535933  0.41895893  1.0
  Ni  Ni381  1  0.61297400  0.17869267  0.41895893  1.0
  Ni  Ni382  1  0.61297400  0.51202600  0.41895893  1.0
  Ni  Ni383  1  0.61297400  0.84535933  0.41895893  1.0
  Ni  Ni384  1  0.94630733  0.17869267  0.41895893  1.0
  Ni  Ni385  1  0.94630733  0.51202600  0.41895893  1.0
  Ni  Ni386  1  0.94630733  0.84535933  0.41895893  1.0
  Ni  Ni387  1  0.11297400  0.17869267  0.34753036  1.0
  Ni  Ni388  1  0.11297400  0.51202600  0.34753036  1.0
  Ni  Ni389  1  0.11297400  0.84535933  0.34753036  1.0
  Ni  Ni390  1  0.44630733  0.17869267  0.34753036  1.0
  Ni  Ni391  1  0.44630733  0.51202600  0.34753036  1.0
  Ni  Ni392  1  0.44630733  0.84535933  0.34753036  1.0
  Ni  Ni393  1  0.77964067  0.17869267  0.34753036  1.0
  Ni  Ni394  1  0.77964067  0.51202600  0.34753036  1.0
  Ni  Ni395  1  0.77964067  0.84535933  0.34753036  1.0
  Ni  Ni396  1  0.11297400  0.01202600  0.31122636  1.0
  Ni  Ni397  1  0.11297400  0.34535933  0.31122636  1.0
  Ni  Ni398  1  0.11297400  0.67869267  0.31122636  1.0
  Ni  Ni399  1  0.44630733  0.01202600  0.31122636  1.0
  Ni  Ni400  1  0.44630733  0.34535933  0.31122636  1.0
  Ni  Ni401  1  0.44630733  0.67869267  0.31122636  1.0
  Ni  Ni402  1  0.77964067  0.01202600  0.31122636  1.0
  Ni  Ni403  1  0.77964067  0.34535933  0.31122636  1.0
  Ni  Ni404  1  0.77964067  0.67869267  0.31122636  1.0
  Ni  Ni405  1  0.27964067  0.01202600  0.38265493  1.0
  Ni  Ni406  1  0.27964067  0.34535933  0.38265493  1.0
  Ni  Ni407  1  0.27964067  0.67869267  0.38265493  1.0
  Ni  Ni408  1  0.61297400  0.01202600  0.38265493  1.0
  Ni  Ni409  1  0.61297400  0.34535933  0.38265493  1.0
  Ni  Ni410  1  0.61297400  0.67869267  0.38265493  1.0
  Ni  Ni411  1  0.94630733  0.01202600  0.38265493  1.0
  Ni  Ni412  1  0.94630733  0.34535933  0.38265493  1.0
  Ni  Ni413  1  0.94630733  0.67869267  0.38265493  1.0
  Ni  Ni414  1  0.22035933  0.15464067  0.33663264  1.0
  Ni  Ni415  1  0.22035933  0.48797400  0.33663264  1.0
  Ni  Ni416  1  0.22035933  0.82130733  0.33663264  1.0
  Ni  Ni417  1  0.55369267  0.15464067  0.33663264  1.0
  Ni  Ni418  1  0.55369267  0.48797400  0.33663264  1.0
  Ni  Ni419  1  0.55369267  0.82130733  0.33663264  1.0
  Ni  Ni420  1  0.88702600  0.15464067  0.33663264  1.0
  Ni  Ni421  1  0.88702600  0.48797400  0.33663264  1.0
  Ni  Ni422  1  0.88702600  0.82130733  0.33663264  1.0
  Ni  Ni423  1  0.05369267  0.15464067  0.40806121  1.0
  Ni  Ni424  1  0.05369267  0.48797400  0.40806121  1.0
  Ni  Ni425  1  0.05369267  0.82130733  0.40806121  1.0
  Ni  Ni426  1  0.38702600  0.15464067  0.40806121  1.0
  Ni  Ni427  1  0.38702600  0.48797400  0.40806121  1.0
  Ni  Ni428  1  0.38702600  0.82130733  0.40806121  1.0
  Ni  Ni429  1  0.72035933  0.15464067  0.40806121  1.0
  Ni  Ni430  1  0.72035933  0.48797400  0.40806121  1.0
  Ni  Ni431  1  0.72035933  0.82130733  0.40806121  1.0
