# generated using pymatgen
data_YNi
_symmetry_space_group_name_H-M   'P 1'
_cell_length_a   20.59173231
_cell_length_b   44.62844124
_cell_length_c   37.18120500
_cell_angle_alpha   106.12353847
_cell_angle_beta   127.00460303
_cell_angle_gamma   80.37799179
_symmetry_Int_Tables_number   1
_chemical_formula_structural   YNi
_chemical_formula_sum   'Y288 Ni288'
_cell_volume   26213.34354894
_cell_formula_units_Z   288
loop_
 _symmetry_equiv_pos_site_id
 _symmetry_equiv_pos_as_xyz
  1  'x, y, z'
loop_
 _atom_site_type_symbol
 _atom_site_label
 _atom_site_symmetry_multiplicity
 _atom_site_fract_x
 _atom_site_fract_y
 _atom_site_fract_z
 _atom_site_occupancy
  Y  Y0  1  0.28931867  0.13670650  0.00233683  1.0
  Y  Y1  1  0.28931867  0.47003983  0.00233683  1.0
  Y  Y2  1  0.28931867  0.80337317  0.00233683  1.0
  Y  Y3  1  0.62265200  0.13670650  0.00233683  1.0
  Y  Y4  1  0.62265200  0.47003983  0.00233683  1.0
  Y  Y5  1  0.62265200  0.80337317  0.00233683  1.0
  Y  Y6  1  0.95598533  0.13670650  0.00233683  1.0
  Y  Y7  1  0.95598533  0.47003983  0.00233683  1.0
  Y  Y8  1  0.95598533  0.80337317  0.00233683  1.0
  Y  Y9  1  0.28931867  0.30337317  0.05789239  1.0
  Y  Y10  1  0.28931867  0.63670650  0.05789239  1.0
  Y  Y11  1  0.28931867  0.97003983  0.05789239  1.0
  Y  Y12  1  0.62265200  0.30337317  0.05789239  1.0
  Y  Y13  1  0.62265200  0.63670650  0.05789239  1.0
  Y  Y14  1  0.62265200  0.97003983  0.05789239  1.0
  Y  Y15  1  0.95598533  0.30337317  0.05789239  1.0
  Y  Y16  1  0.95598533  0.63670650  0.05789239  1.0
  Y  Y17  1  0.95598533  0.97003983  0.05789239  1.0
  Y  Y18  1  0.12265200  0.11329350  0.10564361  1.0
  Y  Y19  1  0.12265200  0.44662683  0.10564361  1.0
  Y  Y20  1  0.12265200  0.77996017  0.10564361  1.0
  Y  Y21  1  0.45598533  0.11329350  0.10564361  1.0
  Y  Y22  1  0.45598533  0.44662683  0.10564361  1.0
  Y  Y23  1  0.45598533  0.77996017  0.10564361  1.0
  Y  Y24  1  0.78931867  0.11329350  0.10564361  1.0
  Y  Y25  1  0.78931867  0.44662683  0.10564361  1.0
  Y  Y26  1  0.78931867  0.77996017  0.10564361  1.0
  Y  Y27  1  0.12265200  0.27996017  0.05008806  1.0
  Y  Y28  1  0.12265200  0.61329350  0.05008806  1.0
  Y  Y29  1  0.12265200  0.94662683  0.05008806  1.0
  Y  Y30  1  0.45598533  0.27996017  0.05008806  1.0
  Y  Y31  1  0.45598533  0.61329350  0.05008806  1.0
  Y  Y32  1  0.45598533  0.94662683  0.05008806  1.0
  Y  Y33  1  0.78931867  0.27996017  0.05008806  1.0
  Y  Y34  1  0.78931867  0.61329350  0.05008806  1.0
  Y  Y35  1  0.78931867  0.94662683  0.05008806  1.0
  Y  Y36  1  0.04401467  0.02996017  0.05165339  1.0
  Y  Y37  1  0.04401467  0.36329350  0.05165339  1.0
  Y  Y38  1  0.04401467  0.69662683  0.05165339  1.0
  Y  Y39  1  0.37734800  0.02996017  0.05165339  1.0
  Y  Y40  1  0.37734800  0.36329350  0.05165339  1.0
  Y  Y41  1  0.37734800  0.69662683  0.05165339  1.0
  Y  Y42  1  0.71068133  0.02996017  0.05165339  1.0
  Y  Y43  1  0.71068133  0.36329350  0.05165339  1.0
  Y  Y44  1  0.71068133  0.69662683  0.05165339  1.0
  Y  Y45  1  0.04401467  0.19662683  0.10720894  1.0
  Y  Y46  1  0.04401467  0.52996017  0.10720894  1.0
  Y  Y47  1  0.04401467  0.86329350  0.10720894  1.0
  Y  Y48  1  0.37734800  0.19662683  0.10720894  1.0
  Y  Y49  1  0.37734800  0.52996017  0.10720894  1.0
  Y  Y50  1  0.37734800  0.86329350  0.10720894  1.0
  Y  Y51  1  0.71068133  0.19662683  0.10720894  1.0
  Y  Y52  1  0.71068133  0.52996017  0.10720894  1.0
  Y  Y53  1  0.71068133  0.86329350  0.10720894  1.0
  Y  Y54  1  0.21068133  0.05337317  0.05945772  1.0
  Y  Y55  1  0.21068133  0.38670650  0.05945772  1.0
  Y  Y56  1  0.21068133  0.72003983  0.05945772  1.0
  Y  Y57  1  0.54401467  0.05337317  0.05945772  1.0
  Y  Y58  1  0.54401467  0.38670650  0.05945772  1.0
  Y  Y59  1  0.54401467  0.72003983  0.05945772  1.0
  Y  Y60  1  0.87734800  0.05337317  0.05945772  1.0
  Y  Y61  1  0.87734800  0.38670650  0.05945772  1.0
  Y  Y62  1  0.87734800  0.72003983  0.05945772  1.0
  Y  Y63  1  0.21068133  0.22003983  0.00390217  1.0
  Y  Y64  1  0.21068133  0.55337317  0.00390217  1.0
  Y  Y65  1  0.21068133  0.88670650  0.00390217  1.0
  Y  Y66  1  0.54401467  0.22003983  0.00390217  1.0
  Y  Y67  1  0.54401467  0.55337317  0.00390217  1.0
  Y  Y68  1  0.54401467  0.88670650  0.00390217  1.0
  Y  Y69  1  0.87734800  0.22003983  0.00390217  1.0
  Y  Y70  1  0.87734800  0.55337317  0.00390217  1.0
  Y  Y71  1  0.87734800  0.88670650  0.00390217  1.0
  Ni  Ni72  1  0.12568800  0.16065367  0.06688678  1.0
  Ni  Ni73  1  0.12568800  0.49398700  0.06688678  1.0
  Ni  Ni74  1  0.12568800  0.82732033  0.06688678  1.0
  Ni  Ni75  1  0.45902133  0.16065367  0.06688678  1.0
  Ni  Ni76  1  0.45902133  0.49398700  0.06688678  1.0
  Ni  Ni77  1  0.45902133  0.82732033  0.06688678  1.0
  Ni  Ni78  1  0.79235467  0.16065367  0.06688678  1.0
  Ni  Ni79  1  0.79235467  0.49398700  0.06688678  1.0
  Ni  Ni80  1  0.79235467  0.82732033  0.06688678  1.0
  Ni  Ni81  1  0.12568800  0.32732033  0.01133122  1.0
  Ni  Ni82  1  0.12568800  0.66065367  0.01133122  1.0
  Ni  Ni83  1  0.12568800  0.99398700  0.01133122  1.0
  Ni  Ni84  1  0.45902133  0.32732033  0.01133122  1.0
  Ni  Ni85  1  0.45902133  0.66065367  0.01133122  1.0
  Ni  Ni86  1  0.45902133  0.99398700  0.01133122  1.0
  Ni  Ni87  1  0.79235467  0.32732033  0.01133122  1.0
  Ni  Ni88  1  0.79235467  0.66065367  0.01133122  1.0
  Ni  Ni89  1  0.79235467  0.99398700  0.01133122  1.0
  Ni  Ni90  1  0.29235467  0.08934633  0.04311767  1.0
  Ni  Ni91  1  0.29235467  0.42267967  0.04311767  1.0
  Ni  Ni92  1  0.29235467  0.75601300  0.04311767  1.0
  Ni  Ni93  1  0.62568800  0.08934633  0.04311767  1.0
  Ni  Ni94  1  0.62568800  0.42267967  0.04311767  1.0
  Ni  Ni95  1  0.62568800  0.75601300  0.04311767  1.0
  Ni  Ni96  1  0.95902133  0.08934633  0.04311767  1.0
  Ni  Ni97  1  0.95902133  0.42267967  0.04311767  1.0
  Ni  Ni98  1  0.95902133  0.75601300  0.04311767  1.0
  Ni  Ni99  1  0.29235467  0.25601300  0.09867322  1.0
  Ni  Ni100  1  0.29235467  0.58934633  0.09867322  1.0
  Ni  Ni101  1  0.29235467  0.92267967  0.09867322  1.0
  Ni  Ni102  1  0.62568800  0.25601300  0.09867322  1.0
  Ni  Ni103  1  0.62568800  0.58934633  0.09867322  1.0
  Ni  Ni104  1  0.62568800  0.92267967  0.09867322  1.0
  Ni  Ni105  1  0.95902133  0.25601300  0.09867322  1.0
  Ni  Ni106  1  0.95902133  0.58934633  0.09867322  1.0
  Ni  Ni107  1  0.95902133  0.92267967  0.09867322  1.0
  Ni  Ni108  1  0.20764533  0.00601300  0.09821456  1.0
  Ni  Ni109  1  0.20764533  0.33934633  0.09821456  1.0
  Ni  Ni110  1  0.20764533  0.67267967  0.09821456  1.0
  Ni  Ni111  1  0.54097867  0.00601300  0.09821456  1.0
  Ni  Ni112  1  0.54097867  0.33934633  0.09821456  1.0
  Ni  Ni113  1  0.54097867  0.67267967  0.09821456  1.0
  Ni  Ni114  1  0.87431200  0.00601300  0.09821456  1.0
  Ni  Ni115  1  0.87431200  0.33934633  0.09821456  1.0
  Ni  Ni116  1  0.87431200  0.67267967  0.09821456  1.0
  Ni  Ni117  1  0.20764533  0.17267967  0.04265900  1.0
  Ni  Ni118  1  0.20764533  0.50601300  0.04265900  1.0
  Ni  Ni119  1  0.20764533  0.83934633  0.04265900  1.0
  Ni  Ni120  1  0.54097867  0.17267967  0.04265900  1.0
  Ni  Ni121  1  0.54097867  0.50601300  0.04265900  1.0
  Ni  Ni122  1  0.54097867  0.83934633  0.04265900  1.0
  Ni  Ni123  1  0.87431200  0.17267967  0.04265900  1.0
  Ni  Ni124  1  0.87431200  0.50601300  0.04265900  1.0
  Ni  Ni125  1  0.87431200  0.83934633  0.04265900  1.0
  Ni  Ni126  1  0.04097867  0.07732033  0.01087256  1.0
  Ni  Ni127  1  0.04097867  0.41065367  0.01087256  1.0
  Ni  Ni128  1  0.04097867  0.74398700  0.01087256  1.0
  Ni  Ni129  1  0.37431200  0.07732033  0.01087256  1.0
  Ni  Ni130  1  0.37431200  0.41065367  0.01087256  1.0
  Ni  Ni131  1  0.37431200  0.74398700  0.01087256  1.0
  Ni  Ni132  1  0.70764533  0.07732033  0.01087256  1.0
  Ni  Ni133  1  0.70764533  0.41065367  0.01087256  1.0
  Ni  Ni134  1  0.70764533  0.74398700  0.01087256  1.0
  Ni  Ni135  1  0.04097867  0.24398700  0.06642811  1.0
  Ni  Ni136  1  0.04097867  0.57732033  0.06642811  1.0
  Ni  Ni137  1  0.04097867  0.91065367  0.06642811  1.0
  Ni  Ni138  1  0.37431200  0.24398700  0.06642811  1.0
  Ni  Ni139  1  0.37431200  0.57732033  0.06642811  1.0
  Ni  Ni140  1  0.37431200  0.91065367  0.06642811  1.0
  Ni  Ni141  1  0.70764533  0.24398700  0.06642811  1.0
  Ni  Ni142  1  0.70764533  0.57732033  0.06642811  1.0
  Ni  Ni143  1  0.70764533  0.91065367  0.06642811  1.0
  Y  Y144  1  0.28931867  0.13670650  0.11344794  1.0
  Y  Y145  1  0.28931867  0.47003983  0.11344794  1.0
  Y  Y146  1  0.28931867  0.80337317  0.11344794  1.0
  Y  Y147  1  0.62265200  0.13670650  0.11344794  1.0
  Y  Y148  1  0.62265200  0.47003983  0.11344794  1.0
  Y  Y149  1  0.62265200  0.80337317  0.11344794  1.0
  Y  Y150  1  0.95598533  0.13670650  0.11344794  1.0
  Y  Y151  1  0.95598533  0.47003983  0.11344794  1.0
  Y  Y152  1  0.95598533  0.80337317  0.11344794  1.0
  Y  Y153  1  0.28931867  0.30337317  0.16900350  1.0
  Y  Y154  1  0.28931867  0.63670650  0.16900350  1.0
  Y  Y155  1  0.28931867  0.97003983  0.16900350  1.0
  Y  Y156  1  0.62265200  0.30337317  0.16900350  1.0
  Y  Y157  1  0.62265200  0.63670650  0.16900350  1.0
  Y  Y158  1  0.62265200  0.97003983  0.16900350  1.0
  Y  Y159  1  0.95598533  0.30337317  0.16900350  1.0
  Y  Y160  1  0.95598533  0.63670650  0.16900350  1.0
  Y  Y161  1  0.95598533  0.97003983  0.16900350  1.0
  Y  Y162  1  0.12265200  0.11329350  0.21675472  1.0
  Y  Y163  1  0.12265200  0.44662683  0.21675472  1.0
  Y  Y164  1  0.12265200  0.77996017  0.21675472  1.0
  Y  Y165  1  0.45598533  0.11329350  0.21675472  1.0
  Y  Y166  1  0.45598533  0.44662683  0.21675472  1.0
  Y  Y167  1  0.45598533  0.77996017  0.21675472  1.0
  Y  Y168  1  0.78931867  0.11329350  0.21675472  1.0
  Y  Y169  1  0.78931867  0.44662683  0.21675472  1.0
  Y  Y170  1  0.78931867  0.77996017  0.21675472  1.0
  Y  Y171  1  0.12265200  0.27996017  0.16119917  1.0
  Y  Y172  1  0.12265200  0.61329350  0.16119917  1.0
  Y  Y173  1  0.12265200  0.94662683  0.16119917  1.0
  Y  Y174  1  0.45598533  0.27996017  0.16119917  1.0
  Y  Y175  1  0.45598533  0.61329350  0.16119917  1.0
  Y  Y176  1  0.45598533  0.94662683  0.16119917  1.0
  Y  Y177  1  0.78931867  0.27996017  0.16119917  1.0
  Y  Y178  1  0.78931867  0.61329350  0.16119917  1.0
  Y  Y179  1  0.78931867  0.94662683  0.16119917  1.0
  Y  Y180  1  0.04401467  0.02996017  0.16276450  1.0
  Y  Y181  1  0.04401467  0.36329350  0.16276450  1.0
  Y  Y182  1  0.04401467  0.69662683  0.16276450  1.0
  Y  Y183  1  0.37734800  0.02996017  0.16276450  1.0
  Y  Y184  1  0.37734800  0.36329350  0.16276450  1.0
  Y  Y185  1  0.37734800  0.69662683  0.16276450  1.0
  Y  Y186  1  0.71068133  0.02996017  0.16276450  1.0
  Y  Y187  1  0.71068133  0.36329350  0.16276450  1.0
  Y  Y188  1  0.71068133  0.69662683  0.16276450  1.0
  Y  Y189  1  0.04401467  0.19662683  0.21832006  1.0
  Y  Y190  1  0.04401467  0.52996017  0.21832006  1.0
  Y  Y191  1  0.04401467  0.86329350  0.21832006  1.0
  Y  Y192  1  0.37734800  0.19662683  0.21832006  1.0
  Y  Y193  1  0.37734800  0.52996017  0.21832006  1.0
  Y  Y194  1  0.37734800  0.86329350  0.21832006  1.0
  Y  Y195  1  0.71068133  0.19662683  0.21832006  1.0
  Y  Y196  1  0.71068133  0.52996017  0.21832006  1.0
  Y  Y197  1  0.71068133  0.86329350  0.21832006  1.0
  Y  Y198  1  0.21068133  0.05337317  0.17056883  1.0
  Y  Y199  1  0.21068133  0.38670650  0.17056883  1.0
  Y  Y200  1  0.21068133  0.72003983  0.17056883  1.0
  Y  Y201  1  0.54401467  0.05337317  0.17056883  1.0
  Y  Y202  1  0.54401467  0.38670650  0.17056883  1.0
  Y  Y203  1  0.54401467  0.72003983  0.17056883  1.0
  Y  Y204  1  0.87734800  0.05337317  0.17056883  1.0
  Y  Y205  1  0.87734800  0.38670650  0.17056883  1.0
  Y  Y206  1  0.87734800  0.72003983  0.17056883  1.0
  Y  Y207  1  0.21068133  0.22003983  0.11501328  1.0
  Y  Y208  1  0.21068133  0.55337317  0.11501328  1.0
  Y  Y209  1  0.21068133  0.88670650  0.11501328  1.0
  Y  Y210  1  0.54401467  0.22003983  0.11501328  1.0
  Y  Y211  1  0.54401467  0.55337317  0.11501328  1.0
  Y  Y212  1  0.54401467  0.88670650  0.11501328  1.0
  Y  Y213  1  0.87734800  0.22003983  0.11501328  1.0
  Y  Y214  1  0.87734800  0.55337317  0.11501328  1.0
  Y  Y215  1  0.87734800  0.88670650  0.11501328  1.0
  Ni  Ni216  1  0.12568800  0.16065367  0.17799789  1.0
  Ni  Ni217  1  0.12568800  0.49398700  0.17799789  1.0
  Ni  Ni218  1  0.12568800  0.82732033  0.17799789  1.0
  Ni  Ni219  1  0.45902133  0.16065367  0.17799789  1.0
  Ni  Ni220  1  0.45902133  0.49398700  0.17799789  1.0
  Ni  Ni221  1  0.45902133  0.82732033  0.17799789  1.0
  Ni  Ni222  1  0.79235467  0.16065367  0.17799789  1.0
  Ni  Ni223  1  0.79235467  0.49398700  0.17799789  1.0
  Ni  Ni224  1  0.79235467  0.82732033  0.17799789  1.0
  Ni  Ni225  1  0.12568800  0.32732033  0.12244233  1.0
  Ni  Ni226  1  0.12568800  0.66065367  0.12244233  1.0
  Ni  Ni227  1  0.12568800  0.99398700  0.12244233  1.0
  Ni  Ni228  1  0.45902133  0.32732033  0.12244233  1.0
  Ni  Ni229  1  0.45902133  0.66065367  0.12244233  1.0
  Ni  Ni230  1  0.45902133  0.99398700  0.12244233  1.0
  Ni  Ni231  1  0.79235467  0.32732033  0.12244233  1.0
  Ni  Ni232  1  0.79235467  0.66065367  0.12244233  1.0
  Ni  Ni233  1  0.79235467  0.99398700  0.12244233  1.0
  Ni  Ni234  1  0.29235467  0.08934633  0.15422878  1.0
  Ni  Ni235  1  0.29235467  0.42267967  0.15422878  1.0
  Ni  Ni236  1  0.29235467  0.75601300  0.15422878  1.0
  Ni  Ni237  1  0.62568800  0.08934633  0.15422878  1.0
  Ni  Ni238  1  0.62568800  0.42267967  0.15422878  1.0
  Ni  Ni239  1  0.62568800  0.75601300  0.15422878  1.0
  Ni  Ni240  1  0.95902133  0.08934633  0.15422878  1.0
  Ni  Ni241  1  0.95902133  0.42267967  0.15422878  1.0
  Ni  Ni242  1  0.95902133  0.75601300  0.15422878  1.0
  Ni  Ni243  1  0.29235467  0.25601300  0.20978433  1.0
  Ni  Ni244  1  0.29235467  0.58934633  0.20978433  1.0
  Ni  Ni245  1  0.29235467  0.92267967  0.20978433  1.0
  Ni  Ni246  1  0.62568800  0.25601300  0.20978433  1.0
  Ni  Ni247  1  0.62568800  0.58934633  0.20978433  1.0
  Ni  Ni248  1  0.62568800  0.92267967  0.20978433  1.0
  Ni  Ni249  1  0.95902133  0.25601300  0.20978433  1.0
  Ni  Ni250  1  0.95902133  0.58934633  0.20978433  1.0
  Ni  Ni251  1  0.95902133  0.92267967  0.20978433  1.0
  Ni  Ni252  1  0.20764533  0.00601300  0.20932567  1.0
  Ni  Ni253  1  0.20764533  0.33934633  0.20932567  1.0
  Ni  Ni254  1  0.20764533  0.67267967  0.20932567  1.0
  Ni  Ni255  1  0.54097867  0.00601300  0.20932567  1.0
  Ni  Ni256  1  0.54097867  0.33934633  0.20932567  1.0
  Ni  Ni257  1  0.54097867  0.67267967  0.20932567  1.0
  Ni  Ni258  1  0.87431200  0.00601300  0.20932567  1.0
  Ni  Ni259  1  0.87431200  0.33934633  0.20932567  1.0
  Ni  Ni260  1  0.87431200  0.67267967  0.20932567  1.0
  Ni  Ni261  1  0.20764533  0.17267967  0.15377011  1.0
  Ni  Ni262  1  0.20764533  0.50601300  0.15377011  1.0
  Ni  Ni263  1  0.20764533  0.83934633  0.15377011  1.0
  Ni  Ni264  1  0.54097867  0.17267967  0.15377011  1.0
  Ni  Ni265  1  0.54097867  0.50601300  0.15377011  1.0
  Ni  Ni266  1  0.54097867  0.83934633  0.15377011  1.0
  Ni  Ni267  1  0.87431200  0.17267967  0.15377011  1.0
  Ni  Ni268  1  0.87431200  0.50601300  0.15377011  1.0
  Ni  Ni269  1  0.87431200  0.83934633  0.15377011  1.0
  Ni  Ni270  1  0.04097867  0.07732033  0.12198367  1.0
  Ni  Ni271  1  0.04097867  0.41065367  0.12198367  1.0
  Ni  Ni272  1  0.04097867  0.74398700  0.12198367  1.0
  Ni  Ni273  1  0.37431200  0.07732033  0.12198367  1.0
  Ni  Ni274  1  0.37431200  0.41065367  0.12198367  1.0
  Ni  Ni275  1  0.37431200  0.74398700  0.12198367  1.0
  Ni  Ni276  1  0.70764533  0.07732033  0.12198367  1.0
  Ni  Ni277  1  0.70764533  0.41065367  0.12198367  1.0
  Ni  Ni278  1  0.70764533  0.74398700  0.12198367  1.0
  Ni  Ni279  1  0.04097867  0.24398700  0.17753922  1.0
  Ni  Ni280  1  0.04097867  0.57732033  0.17753922  1.0
  Ni  Ni281  1  0.04097867  0.91065367  0.17753922  1.0
  Ni  Ni282  1  0.37431200  0.24398700  0.17753922  1.0
  Ni  Ni283  1  0.37431200  0.57732033  0.17753922  1.0
  Ni  Ni284  1  0.37431200  0.91065367  0.17753922  1.0
  Ni  Ni285  1  0.70764533  0.24398700  0.17753922  1.0
  Ni  Ni286  1  0.70764533  0.57732033  0.17753922  1.0
  Ni  Ni287  1  0.70764533  0.91065367  0.17753922  1.0
  Y  Y288  1  0.28931867  0.13670650  0.22455906  1.0
  Y  Y289  1  0.28931867  0.47003983  0.22455906  1.0
  Y  Y290  1  0.28931867  0.80337317  0.22455906  1.0
  Y  Y291  1  0.62265200  0.13670650  0.22455906  1.0
  Y  Y292  1  0.62265200  0.47003983  0.22455906  1.0
  Y  Y293  1  0.62265200  0.80337317  0.22455906  1.0
  Y  Y294  1  0.95598533  0.13670650  0.22455906  1.0
  Y  Y295  1  0.95598533  0.47003983  0.22455906  1.0
  Y  Y296  1  0.95598533  0.80337317  0.22455906  1.0
  Y  Y297  1  0.28931867  0.30337317  0.28011461  1.0
  Y  Y298  1  0.28931867  0.63670650  0.28011461  1.0
  Y  Y299  1  0.28931867  0.97003983  0.28011461  1.0
  Y  Y300  1  0.62265200  0.30337317  0.28011461  1.0
  Y  Y301  1  0.62265200  0.63670650  0.28011461  1.0
  Y  Y302  1  0.62265200  0.97003983  0.28011461  1.0
  Y  Y303  1  0.95598533  0.30337317  0.28011461  1.0
  Y  Y304  1  0.95598533  0.63670650  0.28011461  1.0
  Y  Y305  1  0.95598533  0.97003983  0.28011461  1.0
  Y  Y306  1  0.12265200  0.11329350  0.32786583  1.0
  Y  Y307  1  0.12265200  0.44662683  0.32786583  1.0
  Y  Y308  1  0.12265200  0.77996017  0.32786583  1.0
  Y  Y309  1  0.45598533  0.11329350  0.32786583  1.0
  Y  Y310  1  0.45598533  0.44662683  0.32786583  1.0
  Y  Y311  1  0.45598533  0.77996017  0.32786583  1.0
  Y  Y312  1  0.78931867  0.11329350  0.32786583  1.0
  Y  Y313  1  0.78931867  0.44662683  0.32786583  1.0
  Y  Y314  1  0.78931867  0.77996017  0.32786583  1.0
  Y  Y315  1  0.12265200  0.27996017  0.27231028  1.0
  Y  Y316  1  0.12265200  0.61329350  0.27231028  1.0
  Y  Y317  1  0.12265200  0.94662683  0.27231028  1.0
  Y  Y318  1  0.45598533  0.27996017  0.27231028  1.0
  Y  Y319  1  0.45598533  0.61329350  0.27231028  1.0
  Y  Y320  1  0.45598533  0.94662683  0.27231028  1.0
  Y  Y321  1  0.78931867  0.27996017  0.27231028  1.0
  Y  Y322  1  0.78931867  0.61329350  0.27231028  1.0
  Y  Y323  1  0.78931867  0.94662683  0.27231028  1.0
  Y  Y324  1  0.04401467  0.02996017  0.27387561  1.0
  Y  Y325  1  0.04401467  0.36329350  0.27387561  1.0
  Y  Y326  1  0.04401467  0.69662683  0.27387561  1.0
  Y  Y327  1  0.37734800  0.02996017  0.27387561  1.0
  Y  Y328  1  0.37734800  0.36329350  0.27387561  1.0
  Y  Y329  1  0.37734800  0.69662683  0.27387561  1.0
  Y  Y330  1  0.71068133  0.02996017  0.27387561  1.0
  Y  Y331  1  0.71068133  0.36329350  0.27387561  1.0
  Y  Y332  1  0.71068133  0.69662683  0.27387561  1.0
  Y  Y333  1  0.04401467  0.19662683  0.32943117  1.0
  Y  Y334  1  0.04401467  0.52996017  0.32943117  1.0
  Y  Y335  1  0.04401467  0.86329350  0.32943117  1.0
  Y  Y336  1  0.37734800  0.19662683  0.32943117  1.0
  Y  Y337  1  0.37734800  0.52996017  0.32943117  1.0
  Y  Y338  1  0.37734800  0.86329350  0.32943117  1.0
  Y  Y339  1  0.71068133  0.19662683  0.32943117  1.0
  Y  Y340  1  0.71068133  0.52996017  0.32943117  1.0
  Y  Y341  1  0.71068133  0.86329350  0.32943117  1.0
  Y  Y342  1  0.21068133  0.05337317  0.28167994  1.0
  Y  Y343  1  0.21068133  0.38670650  0.28167994  1.0
  Y  Y344  1  0.21068133  0.72003983  0.28167994  1.0
  Y  Y345  1  0.54401467  0.05337317  0.28167994  1.0
  Y  Y346  1  0.54401467  0.38670650  0.28167994  1.0
  Y  Y347  1  0.54401467  0.72003983  0.28167994  1.0
  Y  Y348  1  0.87734800  0.05337317  0.28167994  1.0
  Y  Y349  1  0.87734800  0.38670650  0.28167994  1.0
  Y  Y350  1  0.87734800  0.72003983  0.28167994  1.0
  Y  Y351  1  0.21068133  0.22003983  0.22612439  1.0
  Y  Y352  1  0.21068133  0.55337317  0.22612439  1.0
  Y  Y353  1  0.21068133  0.88670650  0.22612439  1.0
  Y  Y354  1  0.54401467  0.22003983  0.22612439  1.0
  Y  Y355  1  0.54401467  0.55337317  0.22612439  1.0
  Y  Y356  1  0.54401467  0.88670650  0.22612439  1.0
  Y  Y357  1  0.87734800  0.22003983  0.22612439  1.0
  Y  Y358  1  0.87734800  0.55337317  0.22612439  1.0
  Y  Y359  1  0.87734800  0.88670650  0.22612439  1.0
  Ni  Ni360  1  0.12568800  0.16065367  0.28910900  1.0
  Ni  Ni361  1  0.12568800  0.49398700  0.28910900  1.0
  Ni  Ni362  1  0.12568800  0.82732033  0.28910900  1.0
  Ni  Ni363  1  0.45902133  0.16065367  0.28910900  1.0
  Ni  Ni364  1  0.45902133  0.49398700  0.28910900  1.0
  Ni  Ni365  1  0.45902133  0.82732033  0.28910900  1.0
  Ni  Ni366  1  0.79235467  0.16065367  0.28910900  1.0
  Ni  Ni367  1  0.79235467  0.49398700  0.28910900  1.0
  Ni  Ni368  1  0.79235467  0.82732033  0.28910900  1.0
  Ni  Ni369  1  0.12568800  0.32732033  0.23355344  1.0
  Ni  Ni370  1  0.12568800  0.66065367  0.23355344  1.0
  Ni  Ni371  1  0.12568800  0.99398700  0.23355344  1.0
  Ni  Ni372  1  0.45902133  0.32732033  0.23355344  1.0
  Ni  Ni373  1  0.45902133  0.66065367  0.23355344  1.0
  Ni  Ni374  1  0.45902133  0.99398700  0.23355344  1.0
  Ni  Ni375  1  0.79235467  0.32732033  0.23355344  1.0
  Ni  Ni376  1  0.79235467  0.66065367  0.23355344  1.0
  Ni  Ni377  1  0.79235467  0.99398700  0.23355344  1.0
  Ni  Ni378  1  0.29235467  0.08934633  0.26533989  1.0
  Ni  Ni379  1  0.29235467  0.42267967  0.26533989  1.0
  Ni  Ni380  1  0.29235467  0.75601300  0.26533989  1.0
  Ni  Ni381  1  0.62568800  0.08934633  0.26533989  1.0
  Ni  Ni382  1  0.62568800  0.42267967  0.26533989  1.0
  Ni  Ni383  1  0.62568800  0.75601300  0.26533989  1.0
  Ni  Ni384  1  0.95902133  0.08934633  0.26533989  1.0
  Ni  Ni385  1  0.95902133  0.42267967  0.26533989  1.0
  Ni  Ni386  1  0.95902133  0.75601300  0.26533989  1.0
  Ni  Ni387  1  0.29235467  0.25601300  0.32089544  1.0
  Ni  Ni388  1  0.29235467  0.58934633  0.32089544  1.0
  Ni  Ni389  1  0.29235467  0.92267967  0.32089544  1.0
  Ni  Ni390  1  0.62568800  0.25601300  0.32089544  1.0
  Ni  Ni391  1  0.62568800  0.58934633  0.32089544  1.0
  Ni  Ni392  1  0.62568800  0.92267967  0.32089544  1.0
  Ni  Ni393  1  0.95902133  0.25601300  0.32089544  1.0
  Ni  Ni394  1  0.95902133  0.58934633  0.32089544  1.0
  Ni  Ni395  1  0.95902133  0.92267967  0.32089544  1.0
  Ni  Ni396  1  0.20764533  0.00601300  0.32043678  1.0
  Ni  Ni397  1  0.20764533  0.33934633  0.32043678  1.0
  Ni  Ni398  1  0.20764533  0.67267967  0.32043678  1.0
  Ni  Ni399  1  0.54097867  0.00601300  0.32043678  1.0
  Ni  Ni400  1  0.54097867  0.33934633  0.32043678  1.0
  Ni  Ni401  1  0.54097867  0.67267967  0.32043678  1.0
  Ni  Ni402  1  0.87431200  0.00601300  0.32043678  1.0
  Ni  Ni403  1  0.87431200  0.33934633  0.32043678  1.0
  Ni  Ni404  1  0.87431200  0.67267967  0.32043678  1.0
  Ni  Ni405  1  0.20764533  0.17267967  0.26488122  1.0
  Ni  Ni406  1  0.20764533  0.50601300  0.26488122  1.0
  Ni  Ni407  1  0.20764533  0.83934633  0.26488122  1.0
  Ni  Ni408  1  0.54097867  0.17267967  0.26488122  1.0
  Ni  Ni409  1  0.54097867  0.50601300  0.26488122  1.0
  Ni  Ni410  1  0.54097867  0.83934633  0.26488122  1.0
  Ni  Ni411  1  0.87431200  0.17267967  0.26488122  1.0
  Ni  Ni412  1  0.87431200  0.50601300  0.26488122  1.0
  Ni  Ni413  1  0.87431200  0.83934633  0.26488122  1.0
  Ni  Ni414  1  0.04097867  0.07732033  0.23309478  1.0
  Ni  Ni415  1  0.04097867  0.41065367  0.23309478  1.0
  Ni  Ni416  1  0.04097867  0.74398700  0.23309478  1.0
  Ni  Ni417  1  0.37431200  0.07732033  0.23309478  1.0
  Ni  Ni418  1  0.37431200  0.41065367  0.23309478  1.0
  Ni  Ni419  1  0.37431200  0.74398700  0.23309478  1.0
  Ni  Ni420  1  0.70764533  0.07732033  0.23309478  1.0
  Ni  Ni421  1  0.70764533  0.41065367  0.23309478  1.0
  Ni  Ni422  1  0.70764533  0.74398700  0.23309478  1.0
  Ni  Ni423  1  0.04097867  0.24398700  0.28865033  1.0
  Ni  Ni424  1  0.04097867  0.57732033  0.28865033  1.0
  Ni  Ni425  1  0.04097867  0.91065367  0.28865033  1.0
  Ni  Ni426  1  0.37431200  0.24398700  0.28865033  1.0
  Ni  Ni427  1  0.37431200  0.57732033  0.28865033  1.0
  Ni  Ni428  1  0.37431200  0.91065367  0.28865033  1.0
  Ni  Ni429  1  0.70764533  0.24398700  0.28865033  1.0
  Ni  Ni430  1  0.70764533  0.57732033  0.28865033  1.0
  Ni  Ni431  1  0.70764533  0.91065367  0.28865033  1.0
  Y  Y432  1  0.28931867  0.13670650  0.33567017  1.0
  Y  Y433  1  0.28931867  0.47003983  0.33567017  1.0
  Y  Y434  1  0.28931867  0.80337317  0.33567017  1.0
  Y  Y435  1  0.62265200  0.13670650  0.33567017  1.0
  Y  Y436  1  0.62265200  0.47003983  0.33567017  1.0
  Y  Y437  1  0.62265200  0.80337317  0.33567017  1.0
  Y  Y438  1  0.95598533  0.13670650  0.33567017  1.0
  Y  Y439  1  0.95598533  0.47003983  0.33567017  1.0
  Y  Y440  1  0.95598533  0.80337317  0.33567017  1.0
  Y  Y441  1  0.28931867  0.30337317  0.39122572  1.0
  Y  Y442  1  0.28931867  0.63670650  0.39122572  1.0
  Y  Y443  1  0.28931867  0.97003983  0.39122572  1.0
  Y  Y444  1  0.62265200  0.30337317  0.39122572  1.0
  Y  Y445  1  0.62265200  0.63670650  0.39122572  1.0
  Y  Y446  1  0.62265200  0.97003983  0.39122572  1.0
  Y  Y447  1  0.95598533  0.30337317  0.39122572  1.0
  Y  Y448  1  0.95598533  0.63670650  0.39122572  1.0
  Y  Y449  1  0.95598533  0.97003983  0.39122572  1.0
  Y  Y450  1  0.12265200  0.11329350  0.43897694  1.0
  Y  Y451  1  0.12265200  0.44662683  0.43897694  1.0
  Y  Y452  1  0.12265200  0.77996017  0.43897694  1.0
  Y  Y453  1  0.45598533  0.11329350  0.43897694  1.0
  Y  Y454  1  0.45598533  0.44662683  0.43897694  1.0
  Y  Y455  1  0.45598533  0.77996017  0.43897694  1.0
  Y  Y456  1  0.78931867  0.11329350  0.43897694  1.0
  Y  Y457  1  0.78931867  0.44662683  0.43897694  1.0
  Y  Y458  1  0.78931867  0.77996017  0.43897694  1.0
  Y  Y459  1  0.12265200  0.27996017  0.38342139  1.0
  Y  Y460  1  0.12265200  0.61329350  0.38342139  1.0
  Y  Y461  1  0.12265200  0.94662683  0.38342139  1.0
  Y  Y462  1  0.45598533  0.27996017  0.38342139  1.0
  Y  Y463  1  0.45598533  0.61329350  0.38342139  1.0
  Y  Y464  1  0.45598533  0.94662683  0.38342139  1.0
  Y  Y465  1  0.78931867  0.27996017  0.38342139  1.0
  Y  Y466  1  0.78931867  0.61329350  0.38342139  1.0
  Y  Y467  1  0.78931867  0.94662683  0.38342139  1.0
  Y  Y468  1  0.04401467  0.02996017  0.38498672  1.0
  Y  Y469  1  0.04401467  0.36329350  0.38498672  1.0
  Y  Y470  1  0.04401467  0.69662683  0.38498672  1.0
  Y  Y471  1  0.37734800  0.02996017  0.38498672  1.0
  Y  Y472  1  0.37734800  0.36329350  0.38498672  1.0
  Y  Y473  1  0.37734800  0.69662683  0.38498672  1.0
  Y  Y474  1  0.71068133  0.02996017  0.38498672  1.0
  Y  Y475  1  0.71068133  0.36329350  0.38498672  1.0
  Y  Y476  1  0.71068133  0.69662683  0.38498672  1.0
  Y  Y477  1  0.04401467  0.19662683  0.44054228  1.0
  Y  Y478  1  0.04401467  0.52996017  0.44054228  1.0
  Y  Y479  1  0.04401467  0.86329350  0.44054228  1.0
  Y  Y480  1  0.37734800  0.19662683  0.44054228  1.0
  Y  Y481  1  0.37734800  0.52996017  0.44054228  1.0
  Y  Y482  1  0.37734800  0.86329350  0.44054228  1.0
  Y  Y483  1  0.71068133  0.19662683  0.44054228  1.0
  Y  Y484  1  0.71068133  0.52996017  0.44054228  1.0
  Y  Y485  1  0.71068133  0.86329350  0.44054228  1.0
  Y  Y486  1  0.21068133  0.05337317  0.39279106  1.0
  Y  Y487  1  0.21068133  0.38670650  0.39279106  1.0
  Y  Y488  1  0.21068133  0.72003983  0.39279106  1.0
  Y  Y489  1  0.54401467  0.05337317  0.39279106  1.0
  Y  Y490  1  0.54401467  0.38670650  0.39279106  1.0
  Y  Y491  1  0.54401467  0.72003983  0.39279106  1.0
  Y  Y492  1  0.87734800  0.05337317  0.39279106  1.0
  Y  Y493  1  0.87734800  0.38670650  0.39279106  1.0
  Y  Y494  1  0.87734800  0.72003983  0.39279106  1.0
  Y  Y495  1  0.21068133  0.22003983  0.33723550  1.0
  Y  Y496  1  0.21068133  0.55337317  0.33723550  1.0
  Y  Y497  1  0.21068133  0.88670650  0.33723550  1.0
  Y  Y498  1  0.54401467  0.22003983  0.33723550  1.0
  Y  Y499  1  0.54401467  0.55337317  0.33723550  1.0
  Y  Y500  1  0.54401467  0.88670650  0.33723550  1.0
  Y  Y501  1  0.87734800  0.22003983  0.33723550  1.0
  Y  Y502  1  0.87734800  0.55337317  0.33723550  1.0
  Y  Y503  1  0.87734800  0.88670650  0.33723550  1.0
  Ni  Ni504  1  0.12568800  0.16065367  0.40022011  1.0
  Ni  Ni505  1  0.12568800  0.49398700  0.40022011  1.0
  Ni  Ni506  1  0.12568800  0.82732033  0.40022011  1.0
  Ni  Ni507  1  0.45902133  0.16065367  0.40022011  1.0
  Ni  Ni508  1  0.45902133  0.49398700  0.40022011  1.0
  Ni  Ni509  1  0.45902133  0.82732033  0.40022011  1.0
  Ni  Ni510  1  0.79235467  0.16065367  0.40022011  1.0
  Ni  Ni511  1  0.79235467  0.49398700  0.40022011  1.0
  Ni  Ni512  1  0.79235467  0.82732033  0.40022011  1.0
  Ni  Ni513  1  0.12568800  0.32732033  0.34466456  1.0
  Ni  Ni514  1  0.12568800  0.66065367  0.34466456  1.0
  Ni  Ni515  1  0.12568800  0.99398700  0.34466456  1.0
  Ni  Ni516  1  0.45902133  0.32732033  0.34466456  1.0
  Ni  Ni517  1  0.45902133  0.66065367  0.34466456  1.0
  Ni  Ni518  1  0.45902133  0.99398700  0.34466456  1.0
  Ni  Ni519  1  0.79235467  0.32732033  0.34466456  1.0
  Ni  Ni520  1  0.79235467  0.66065367  0.34466456  1.0
  Ni  Ni521  1  0.79235467  0.99398700  0.34466456  1.0
  Ni  Ni522  1  0.29235467  0.08934633  0.37645100  1.0
  Ni  Ni523  1  0.29235467  0.42267967  0.37645100  1.0
  Ni  Ni524  1  0.29235467  0.75601300  0.37645100  1.0
  Ni  Ni525  1  0.62568800  0.08934633  0.37645100  1.0
  Ni  Ni526  1  0.62568800  0.42267967  0.37645100  1.0
  Ni  Ni527  1  0.62568800  0.75601300  0.37645100  1.0
  Ni  Ni528  1  0.95902133  0.08934633  0.37645100  1.0
  Ni  Ni529  1  0.95902133  0.42267967  0.37645100  1.0
  Ni  Ni530  1  0.95902133  0.75601300  0.37645100  1.0
  Ni  Ni531  1  0.29235467  0.25601300  0.43200656  1.0
  Ni  Ni532  1  0.29235467  0.58934633  0.43200656  1.0
  Ni  Ni533  1  0.29235467  0.92267967  0.43200656  1.0
  Ni  Ni534  1  0.62568800  0.25601300  0.43200656  1.0
  Ni  Ni535  1  0.62568800  0.58934633  0.43200656  1.0
  Ni  Ni536  1  0.62568800  0.92267967  0.43200656  1.0
  Ni  Ni537  1  0.95902133  0.25601300  0.43200656  1.0
  Ni  Ni538  1  0.95902133  0.58934633  0.43200656  1.0
  Ni  Ni539  1  0.95902133  0.92267967  0.43200656  1.0
  Ni  Ni540  1  0.20764533  0.00601300  0.43154789  1.0
  Ni  Ni541  1  0.20764533  0.33934633  0.43154789  1.0
  Ni  Ni542  1  0.20764533  0.67267967  0.43154789  1.0
  Ni  Ni543  1  0.54097867  0.00601300  0.43154789  1.0
  Ni  Ni544  1  0.54097867  0.33934633  0.43154789  1.0
  Ni  Ni545  1  0.54097867  0.67267967  0.43154789  1.0
  Ni  Ni546  1  0.87431200  0.00601300  0.43154789  1.0
  Ni  Ni547  1  0.87431200  0.33934633  0.43154789  1.0
  Ni  Ni548  1  0.87431200  0.67267967  0.43154789  1.0
  Ni  Ni549  1  0.20764533  0.17267967  0.37599233  1.0
  Ni  Ni550  1  0.20764533  0.50601300  0.37599233  1.0
  Ni  Ni551  1  0.20764533  0.83934633  0.37599233  1.0
  Ni  Ni552  1  0.54097867  0.17267967  0.37599233  1.0
  Ni  Ni553  1  0.54097867  0.50601300  0.37599233  1.0
  Ni  Ni554  1  0.54097867  0.83934633  0.37599233  1.0
  Ni  Ni555  1  0.87431200  0.17267967  0.37599233  1.0
  Ni  Ni556  1  0.87431200  0.50601300  0.37599233  1.0
  Ni  Ni557  1  0.87431200  0.83934633  0.37599233  1.0
  Ni  Ni558  1  0.04097867  0.07732033  0.34420589  1.0
  Ni  Ni559  1  0.04097867  0.41065367  0.34420589  1.0
  Ni  Ni560  1  0.04097867  0.74398700  0.34420589  1.0
  Ni  Ni561  1  0.37431200  0.07732033  0.34420589  1.0
  Ni  Ni562  1  0.37431200  0.41065367  0.34420589  1.0
  Ni  Ni563  1  0.37431200  0.74398700  0.34420589  1.0
  Ni  Ni564  1  0.70764533  0.07732033  0.34420589  1.0
  Ni  Ni565  1  0.70764533  0.41065367  0.34420589  1.0
  Ni  Ni566  1  0.70764533  0.74398700  0.34420589  1.0
  Ni  Ni567  1  0.04097867  0.24398700  0.39976144  1.0
  Ni  Ni568  1  0.04097867  0.57732033  0.39976144  1.0
  Ni  Ni569  1  0.04097867  0.91065367  0.39976144  1.0
  Ni  Ni570  1  0.37431200  0.24398700  0.39976144  1.0
  Ni  Ni571  1  0.37431200  0.57732033  0.39976144  1.0
  Ni  Ni572  1  0.37431200  0.91065367  0.39976144  1.0
  Ni  Ni573  1  0.70764533  0.24398700  0.39976144  1.0
  Ni  Ni574  1  0.70764533  0.57732033  0.39976144  1.0
  Ni  Ni575  1  0.70764533  0.91065367  0.39976144  1.0
