# generated using pymatgen
data_YNi
_symmetry_space_group_name_H-M   'P 1'
_cell_length_a   12.39373500
_cell_length_b   21.43649400
_cell_length_c   27.40715500
_cell_angle_alpha   90.00000000
_cell_angle_beta   90.00000000
_cell_angle_gamma   90.00000000
_symmetry_Int_Tables_number   1
_chemical_formula_structural   YNi
_chemical_formula_sum   'Y72 Ni72'
_cell_volume   7281.48431915
_cell_formula_units_Z   72
loop_
 _symmetry_equiv_pos_site_id
 _symmetry_equiv_pos_as_xyz
  1  'x, y, z'
loop_
 _atom_site_type_symbol
 _atom_site_label
 _atom_site_symmetry_multiplicity
 _atom_site_fract_x
 _atom_site_fract_y
 _atom_site_fract_z
 _atom_site_occupancy
  Y  Y0  1  0.08333333  0.05992033  0.02640880  1.0
  Y  Y1  1  0.08333333  0.39325367  0.02640880  1.0
  Y  Y2  1  0.08333333  0.72658700  0.02640880  1.0
  Y  Y3  1  0.41666667  0.05992033  0.02640880  1.0
  Y  Y4  1  0.41666667  0.39325367  0.02640880  1.0
  Y  Y5  1  0.41666667  0.72658700  0.02640880  1.0
  Y  Y6  1  0.75000000  0.05992033  0.02640880  1.0
  Y  Y7  1  0.75000000  0.39325367  0.02640880  1.0
  Y  Y8  1  0.75000000  0.72658700  0.02640880  1.0
  Y  Y9  1  0.25000000  0.10674633  0.12640880  1.0
  Y  Y10  1  0.25000000  0.44007967  0.12640880  1.0
  Y  Y11  1  0.25000000  0.77341300  0.12640880  1.0
  Y  Y12  1  0.58333333  0.10674633  0.12640880  1.0
  Y  Y13  1  0.58333333  0.44007967  0.12640880  1.0
  Y  Y14  1  0.58333333  0.77341300  0.12640880  1.0
  Y  Y15  1  0.91666667  0.10674633  0.12640880  1.0
  Y  Y16  1  0.91666667  0.44007967  0.12640880  1.0
  Y  Y17  1  0.91666667  0.77341300  0.12640880  1.0
  Y  Y18  1  0.25000000  0.27341300  0.17359120  1.0
  Y  Y19  1  0.25000000  0.60674633  0.17359120  1.0
  Y  Y20  1  0.25000000  0.94007967  0.17359120  1.0
  Y  Y21  1  0.58333333  0.27341300  0.17359120  1.0
  Y  Y22  1  0.58333333  0.60674633  0.17359120  1.0
  Y  Y23  1  0.58333333  0.94007967  0.17359120  1.0
  Y  Y24  1  0.91666667  0.27341300  0.17359120  1.0
  Y  Y25  1  0.91666667  0.60674633  0.17359120  1.0
  Y  Y26  1  0.91666667  0.94007967  0.17359120  1.0
  Y  Y27  1  0.08333333  0.22658700  0.07359120  1.0
  Y  Y28  1  0.08333333  0.55992033  0.07359120  1.0
  Y  Y29  1  0.08333333  0.89325367  0.07359120  1.0
  Y  Y30  1  0.41666667  0.22658700  0.07359120  1.0
  Y  Y31  1  0.41666667  0.55992033  0.07359120  1.0
  Y  Y32  1  0.41666667  0.89325367  0.07359120  1.0
  Y  Y33  1  0.75000000  0.22658700  0.07359120  1.0
  Y  Y34  1  0.75000000  0.55992033  0.07359120  1.0
  Y  Y35  1  0.75000000  0.89325367  0.07359120  1.0
  Ni  Ni36  1  0.08333333  0.01202600  0.12458720  1.0
  Ni  Ni37  1  0.08333333  0.34535933  0.12458720  1.0
  Ni  Ni38  1  0.08333333  0.67869267  0.12458720  1.0
  Ni  Ni39  1  0.41666667  0.01202600  0.12458720  1.0
  Ni  Ni40  1  0.41666667  0.34535933  0.12458720  1.0
  Ni  Ni41  1  0.41666667  0.67869267  0.12458720  1.0
  Ni  Ni42  1  0.75000000  0.01202600  0.12458720  1.0
  Ni  Ni43  1  0.75000000  0.34535933  0.12458720  1.0
  Ni  Ni44  1  0.75000000  0.67869267  0.12458720  1.0
  Ni  Ni45  1  0.25000000  0.15464067  0.02458720  1.0
  Ni  Ni46  1  0.25000000  0.48797400  0.02458720  1.0
  Ni  Ni47  1  0.25000000  0.82130733  0.02458720  1.0
  Ni  Ni48  1  0.58333333  0.15464067  0.02458720  1.0
  Ni  Ni49  1  0.58333333  0.48797400  0.02458720  1.0
  Ni  Ni50  1  0.58333333  0.82130733  0.02458720  1.0
  Ni  Ni51  1  0.91666667  0.15464067  0.02458720  1.0
  Ni  Ni52  1  0.91666667  0.48797400  0.02458720  1.0
  Ni  Ni53  1  0.91666667  0.82130733  0.02458720  1.0
  Ni  Ni54  1  0.25000000  0.32130733  0.07541280  1.0
  Ni  Ni55  1  0.25000000  0.65464067  0.07541280  1.0
  Ni  Ni56  1  0.25000000  0.98797400  0.07541280  1.0
  Ni  Ni57  1  0.58333333  0.32130733  0.07541280  1.0
  Ni  Ni58  1  0.58333333  0.65464067  0.07541280  1.0
  Ni  Ni59  1  0.58333333  0.98797400  0.07541280  1.0
  Ni  Ni60  1  0.91666667  0.32130733  0.07541280  1.0
  Ni  Ni61  1  0.91666667  0.65464067  0.07541280  1.0
  Ni  Ni62  1  0.91666667  0.98797400  0.07541280  1.0
  Ni  Ni63  1  0.08333333  0.17869267  0.17541280  1.0
  Ni  Ni64  1  0.08333333  0.51202600  0.17541280  1.0
  Ni  Ni65  1  0.08333333  0.84535933  0.17541280  1.0
  Ni  Ni66  1  0.41666667  0.17869267  0.17541280  1.0
  Ni  Ni67  1  0.41666667  0.51202600  0.17541280  1.0
  Ni  Ni68  1  0.41666667  0.84535933  0.17541280  1.0
  Ni  Ni69  1  0.75000000  0.17869267  0.17541280  1.0
  Ni  Ni70  1  0.75000000  0.51202600  0.17541280  1.0
  Ni  Ni71  1  0.75000000  0.84535933  0.17541280  1.0
  Y  Y72  1  0.08333333  0.05992033  0.22640880  1.0
  Y  Y73  1  0.08333333  0.39325367  0.22640880  1.0
  Y  Y74  1  0.08333333  0.72658700  0.22640880  1.0
  Y  Y75  1  0.41666667  0.05992033  0.22640880  1.0
  Y  Y76  1  0.41666667  0.39325367  0.22640880  1.0
  Y  Y77  1  0.41666667  0.72658700  0.22640880  1.0
  Y  Y78  1  0.75000000  0.05992033  0.22640880  1.0
  Y  Y79  1  0.75000000  0.39325367  0.22640880  1.0
  Y  Y80  1  0.75000000  0.72658700  0.22640880  1.0
  Y  Y81  1  0.25000000  0.10674633  0.32640880  1.0
  Y  Y82  1  0.25000000  0.44007967  0.32640880  1.0
  Y  Y83  1  0.25000000  0.77341300  0.32640880  1.0
  Y  Y84  1  0.58333333  0.10674633  0.32640880  1.0
  Y  Y85  1  0.58333333  0.44007967  0.32640880  1.0
  Y  Y86  1  0.58333333  0.77341300  0.32640880  1.0
  Y  Y87  1  0.91666667  0.10674633  0.32640880  1.0
  Y  Y88  1  0.91666667  0.44007967  0.32640880  1.0
  Y  Y89  1  0.91666667  0.77341300  0.32640880  1.0
  Y  Y90  1  0.25000000  0.27341300  0.37359120  1.0
  Y  Y91  1  0.25000000  0.60674633  0.37359120  1.0
  Y  Y92  1  0.25000000  0.94007967  0.37359120  1.0
  Y  Y93  1  0.58333333  0.27341300  0.37359120  1.0
  Y  Y94  1  0.58333333  0.60674633  0.37359120  1.0
  Y  Y95  1  0.58333333  0.94007967  0.37359120  1.0
  Y  Y96  1  0.91666667  0.27341300  0.37359120  1.0
  Y  Y97  1  0.91666667  0.60674633  0.37359120  1.0
  Y  Y98  1  0.91666667  0.94007967  0.37359120  1.0
  Y  Y99  1  0.08333333  0.22658700  0.27359120  1.0
  Y  Y100  1  0.08333333  0.55992033  0.27359120  1.0
  Y  Y101  1  0.08333333  0.89325367  0.27359120  1.0
  Y  Y102  1  0.41666667  0.22658700  0.27359120  1.0
  Y  Y103  1  0.41666667  0.55992033  0.27359120  1.0
  Y  Y104  1  0.41666667  0.89325367  0.27359120  1.0
  Y  Y105  1  0.75000000  0.22658700  0.27359120  1.0
  Y  Y106  1  0.75000000  0.55992033  0.27359120  1.0
  Y  Y107  1  0.75000000  0.89325367  0.27359120  1.0
  Ni  Ni108  1  0.08333333  0.01202600  0.32458720  1.0
  Ni  Ni109  1  0.08333333  0.34535933  0.32458720  1.0
  Ni  Ni110  1  0.08333333  0.67869267  0.32458720  1.0
  Ni  Ni111  1  0.41666667  0.01202600  0.32458720  1.0
  Ni  Ni112  1  0.41666667  0.34535933  0.32458720  1.0
  Ni  Ni113  1  0.41666667  0.67869267  0.32458720  1.0
  Ni  Ni114  1  0.75000000  0.01202600  0.32458720  1.0
  Ni  Ni115  1  0.75000000  0.34535933  0.32458720  1.0
  Ni  Ni116  1  0.75000000  0.67869267  0.32458720  1.0
  Ni  Ni117  1  0.25000000  0.15464067  0.22458720  1.0
  Ni  Ni118  1  0.25000000  0.48797400  0.22458720  1.0
  Ni  Ni119  1  0.25000000  0.82130733  0.22458720  1.0
  Ni  Ni120  1  0.58333333  0.15464067  0.22458720  1.0
  Ni  Ni121  1  0.58333333  0.48797400  0.22458720  1.0
  Ni  Ni122  1  0.58333333  0.82130733  0.22458720  1.0
  Ni  Ni123  1  0.91666667  0.15464067  0.22458720  1.0
  Ni  Ni124  1  0.91666667  0.48797400  0.22458720  1.0
  Ni  Ni125  1  0.91666667  0.82130733  0.22458720  1.0
  Ni  Ni126  1  0.25000000  0.32130733  0.27541280  1.0
  Ni  Ni127  1  0.25000000  0.65464067  0.27541280  1.0
  Ni  Ni128  1  0.25000000  0.98797400  0.27541280  1.0
  Ni  Ni129  1  0.58333333  0.32130733  0.27541280  1.0
  Ni  Ni130  1  0.58333333  0.65464067  0.27541280  1.0
  Ni  Ni131  1  0.58333333  0.98797400  0.27541280  1.0
  Ni  Ni132  1  0.91666667  0.32130733  0.27541280  1.0
  Ni  Ni133  1  0.91666667  0.65464067  0.27541280  1.0
  Ni  Ni134  1  0.91666667  0.98797400  0.27541280  1.0
  Ni  Ni135  1  0.08333333  0.17869267  0.37541280  1.0
  Ni  Ni136  1  0.08333333  0.51202600  0.37541280  1.0
  Ni  Ni137  1  0.08333333  0.84535933  0.37541280  1.0
  Ni  Ni138  1  0.41666667  0.17869267  0.37541280  1.0
  Ni  Ni139  1  0.41666667  0.51202600  0.37541280  1.0
  Ni  Ni140  1  0.41666667  0.84535933  0.37541280  1.0
  Ni  Ni141  1  0.75000000  0.17869267  0.37541280  1.0
  Ni  Ni142  1  0.75000000  0.51202600  0.37541280  1.0
  Ni  Ni143  1  0.75000000  0.84535933  0.37541280  1.0
