# generated using pymatgen
data_YNi
_symmetry_space_group_name_H-M   'P 1'
_cell_length_a   21.43649400
_cell_length_b   20.59173231
_cell_length_c   37.18120500
_cell_angle_alpha   127.00460303
_cell_angle_beta   90.00000000
_cell_angle_gamma   90.00000000
_symmetry_Int_Tables_number   1
_chemical_formula_structural   YNi
_chemical_formula_sum   'Y144 Ni144'
_cell_volume   13106.67177447
_cell_formula_units_Z   144
loop_
 _symmetry_equiv_pos_site_id
 _symmetry_equiv_pos_as_xyz
  1  'x, y, z'
loop_
 _atom_site_type_symbol
 _atom_site_label
 _atom_site_symmetry_multiplicity
 _atom_site_fract_x
 _atom_site_fract_y
 _atom_site_fract_z
 _atom_site_occupancy
  Y  Y0  1  0.05992033  0.04401467  0.04244933  1.0
  Y  Y1  1  0.05992033  0.37734800  0.04244933  1.0
  Y  Y2  1  0.05992033  0.71068133  0.04244933  1.0
  Y  Y3  1  0.39325367  0.04401467  0.04244933  1.0
  Y  Y4  1  0.39325367  0.37734800  0.04244933  1.0
  Y  Y5  1  0.39325367  0.71068133  0.04244933  1.0
  Y  Y6  1  0.72658700  0.04401467  0.04244933  1.0
  Y  Y7  1  0.72658700  0.37734800  0.04244933  1.0
  Y  Y8  1  0.72658700  0.71068133  0.04244933  1.0
  Y  Y9  1  0.10674633  0.21068133  0.04244933  1.0
  Y  Y10  1  0.10674633  0.54401467  0.04244933  1.0
  Y  Y11  1  0.10674633  0.87734800  0.04244933  1.0
  Y  Y12  1  0.44007967  0.21068133  0.04244933  1.0
  Y  Y13  1  0.44007967  0.54401467  0.04244933  1.0
  Y  Y14  1  0.44007967  0.87734800  0.04244933  1.0
  Y  Y15  1  0.77341300  0.21068133  0.04244933  1.0
  Y  Y16  1  0.77341300  0.54401467  0.04244933  1.0
  Y  Y17  1  0.77341300  0.87734800  0.04244933  1.0
  Y  Y18  1  0.27341300  0.28931867  0.06866178  1.0
  Y  Y19  1  0.27341300  0.62265200  0.06866178  1.0
  Y  Y20  1  0.27341300  0.95598533  0.06866178  1.0
  Y  Y21  1  0.60674633  0.28931867  0.06866178  1.0
  Y  Y22  1  0.60674633  0.62265200  0.06866178  1.0
  Y  Y23  1  0.60674633  0.95598533  0.06866178  1.0
  Y  Y24  1  0.94007967  0.28931867  0.06866178  1.0
  Y  Y25  1  0.94007967  0.62265200  0.06866178  1.0
  Y  Y26  1  0.94007967  0.95598533  0.06866178  1.0
  Y  Y27  1  0.22658700  0.12265200  0.06866178  1.0
  Y  Y28  1  0.22658700  0.45598533  0.06866178  1.0
  Y  Y29  1  0.22658700  0.78931867  0.06866178  1.0
  Y  Y30  1  0.55992033  0.12265200  0.06866178  1.0
  Y  Y31  1  0.55992033  0.45598533  0.06866178  1.0
  Y  Y32  1  0.55992033  0.78931867  0.06866178  1.0
  Y  Y33  1  0.89325367  0.12265200  0.06866178  1.0
  Y  Y34  1  0.89325367  0.45598533  0.06866178  1.0
  Y  Y35  1  0.89325367  0.78931867  0.06866178  1.0
  Ni  Ni36  1  0.01202600  0.20764533  0.09699289  1.0
  Ni  Ni37  1  0.01202600  0.54097867  0.09699289  1.0
  Ni  Ni38  1  0.01202600  0.87431200  0.09699289  1.0
  Ni  Ni39  1  0.34535933  0.20764533  0.09699289  1.0
  Ni  Ni40  1  0.34535933  0.54097867  0.09699289  1.0
  Ni  Ni41  1  0.34535933  0.87431200  0.09699289  1.0
  Ni  Ni42  1  0.67869267  0.20764533  0.09699289  1.0
  Ni  Ni43  1  0.67869267  0.54097867  0.09699289  1.0
  Ni  Ni44  1  0.67869267  0.87431200  0.09699289  1.0
  Ni  Ni45  1  0.15464067  0.04097867  0.09699289  1.0
  Ni  Ni46  1  0.15464067  0.37431200  0.09699289  1.0
  Ni  Ni47  1  0.15464067  0.70764533  0.09699289  1.0
  Ni  Ni48  1  0.48797400  0.04097867  0.09699289  1.0
  Ni  Ni49  1  0.48797400  0.37431200  0.09699289  1.0
  Ni  Ni50  1  0.48797400  0.70764533  0.09699289  1.0
  Ni  Ni51  1  0.82130733  0.04097867  0.09699289  1.0
  Ni  Ni52  1  0.82130733  0.37431200  0.09699289  1.0
  Ni  Ni53  1  0.82130733  0.70764533  0.09699289  1.0
  Ni  Ni54  1  0.32130733  0.12568800  0.01411822  1.0
  Ni  Ni55  1  0.32130733  0.45902133  0.01411822  1.0
  Ni  Ni56  1  0.32130733  0.79235467  0.01411822  1.0
  Ni  Ni57  1  0.65464067  0.12568800  0.01411822  1.0
  Ni  Ni58  1  0.65464067  0.45902133  0.01411822  1.0
  Ni  Ni59  1  0.65464067  0.79235467  0.01411822  1.0
  Ni  Ni60  1  0.98797400  0.12568800  0.01411822  1.0
  Ni  Ni61  1  0.98797400  0.45902133  0.01411822  1.0
  Ni  Ni62  1  0.98797400  0.79235467  0.01411822  1.0
  Ni  Ni63  1  0.17869267  0.29235467  0.01411822  1.0
  Ni  Ni64  1  0.17869267  0.62568800  0.01411822  1.0
  Ni  Ni65  1  0.17869267  0.95902133  0.01411822  1.0
  Ni  Ni66  1  0.51202600  0.29235467  0.01411822  1.0
  Ni  Ni67  1  0.51202600  0.62568800  0.01411822  1.0
  Ni  Ni68  1  0.51202600  0.95902133  0.01411822  1.0
  Ni  Ni69  1  0.84535933  0.29235467  0.01411822  1.0
  Ni  Ni70  1  0.84535933  0.62568800  0.01411822  1.0
  Ni  Ni71  1  0.84535933  0.95902133  0.01411822  1.0
  Y  Y72  1  0.05992033  0.04401467  0.15356044  1.0
  Y  Y73  1  0.05992033  0.37734800  0.15356044  1.0
  Y  Y74  1  0.05992033  0.71068133  0.15356044  1.0
  Y  Y75  1  0.39325367  0.04401467  0.15356044  1.0
  Y  Y76  1  0.39325367  0.37734800  0.15356044  1.0
  Y  Y77  1  0.39325367  0.71068133  0.15356044  1.0
  Y  Y78  1  0.72658700  0.04401467  0.15356044  1.0
  Y  Y79  1  0.72658700  0.37734800  0.15356044  1.0
  Y  Y80  1  0.72658700  0.71068133  0.15356044  1.0
  Y  Y81  1  0.10674633  0.21068133  0.15356044  1.0
  Y  Y82  1  0.10674633  0.54401467  0.15356044  1.0
  Y  Y83  1  0.10674633  0.87734800  0.15356044  1.0
  Y  Y84  1  0.44007967  0.21068133  0.15356044  1.0
  Y  Y85  1  0.44007967  0.54401467  0.15356044  1.0
  Y  Y86  1  0.44007967  0.87734800  0.15356044  1.0
  Y  Y87  1  0.77341300  0.21068133  0.15356044  1.0
  Y  Y88  1  0.77341300  0.54401467  0.15356044  1.0
  Y  Y89  1  0.77341300  0.87734800  0.15356044  1.0
  Y  Y90  1  0.27341300  0.28931867  0.17977289  1.0
  Y  Y91  1  0.27341300  0.62265200  0.17977289  1.0
  Y  Y92  1  0.27341300  0.95598533  0.17977289  1.0
  Y  Y93  1  0.60674633  0.28931867  0.17977289  1.0
  Y  Y94  1  0.60674633  0.62265200  0.17977289  1.0
  Y  Y95  1  0.60674633  0.95598533  0.17977289  1.0
  Y  Y96  1  0.94007967  0.28931867  0.17977289  1.0
  Y  Y97  1  0.94007967  0.62265200  0.17977289  1.0
  Y  Y98  1  0.94007967  0.95598533  0.17977289  1.0
  Y  Y99  1  0.22658700  0.12265200  0.17977289  1.0
  Y  Y100  1  0.22658700  0.45598533  0.17977289  1.0
  Y  Y101  1  0.22658700  0.78931867  0.17977289  1.0
  Y  Y102  1  0.55992033  0.12265200  0.17977289  1.0
  Y  Y103  1  0.55992033  0.45598533  0.17977289  1.0
  Y  Y104  1  0.55992033  0.78931867  0.17977289  1.0
  Y  Y105  1  0.89325367  0.12265200  0.17977289  1.0
  Y  Y106  1  0.89325367  0.45598533  0.17977289  1.0
  Y  Y107  1  0.89325367  0.78931867  0.17977289  1.0
  Ni  Ni108  1  0.01202600  0.20764533  0.20810400  1.0
  Ni  Ni109  1  0.01202600  0.54097867  0.20810400  1.0
  Ni  Ni110  1  0.01202600  0.87431200  0.20810400  1.0
  Ni  Ni111  1  0.34535933  0.20764533  0.20810400  1.0
  Ni  Ni112  1  0.34535933  0.54097867  0.20810400  1.0
  Ni  Ni113  1  0.34535933  0.87431200  0.20810400  1.0
  Ni  Ni114  1  0.67869267  0.20764533  0.20810400  1.0
  Ni  Ni115  1  0.67869267  0.54097867  0.20810400  1.0
  Ni  Ni116  1  0.67869267  0.87431200  0.20810400  1.0
  Ni  Ni117  1  0.15464067  0.04097867  0.20810400  1.0
  Ni  Ni118  1  0.15464067  0.37431200  0.20810400  1.0
  Ni  Ni119  1  0.15464067  0.70764533  0.20810400  1.0
  Ni  Ni120  1  0.48797400  0.04097867  0.20810400  1.0
  Ni  Ni121  1  0.48797400  0.37431200  0.20810400  1.0
  Ni  Ni122  1  0.48797400  0.70764533  0.20810400  1.0
  Ni  Ni123  1  0.82130733  0.04097867  0.20810400  1.0
  Ni  Ni124  1  0.82130733  0.37431200  0.20810400  1.0
  Ni  Ni125  1  0.82130733  0.70764533  0.20810400  1.0
  Ni  Ni126  1  0.32130733  0.12568800  0.12522933  1.0
  Ni  Ni127  1  0.32130733  0.45902133  0.12522933  1.0
  Ni  Ni128  1  0.32130733  0.79235467  0.12522933  1.0
  Ni  Ni129  1  0.65464067  0.12568800  0.12522933  1.0
  Ni  Ni130  1  0.65464067  0.45902133  0.12522933  1.0
  Ni  Ni131  1  0.65464067  0.79235467  0.12522933  1.0
  Ni  Ni132  1  0.98797400  0.12568800  0.12522933  1.0
  Ni  Ni133  1  0.98797400  0.45902133  0.12522933  1.0
  Ni  Ni134  1  0.98797400  0.79235467  0.12522933  1.0
  Ni  Ni135  1  0.17869267  0.29235467  0.12522933  1.0
  Ni  Ni136  1  0.17869267  0.62568800  0.12522933  1.0
  Ni  Ni137  1  0.17869267  0.95902133  0.12522933  1.0
  Ni  Ni138  1  0.51202600  0.29235467  0.12522933  1.0
  Ni  Ni139  1  0.51202600  0.62568800  0.12522933  1.0
  Ni  Ni140  1  0.51202600  0.95902133  0.12522933  1.0
  Ni  Ni141  1  0.84535933  0.29235467  0.12522933  1.0
  Ni  Ni142  1  0.84535933  0.62568800  0.12522933  1.0
  Ni  Ni143  1  0.84535933  0.95902133  0.12522933  1.0
  Y  Y144  1  0.05992033  0.04401467  0.26467156  1.0
  Y  Y145  1  0.05992033  0.37734800  0.26467156  1.0
  Y  Y146  1  0.05992033  0.71068133  0.26467156  1.0
  Y  Y147  1  0.39325367  0.04401467  0.26467156  1.0
  Y  Y148  1  0.39325367  0.37734800  0.26467156  1.0
  Y  Y149  1  0.39325367  0.71068133  0.26467156  1.0
  Y  Y150  1  0.72658700  0.04401467  0.26467156  1.0
  Y  Y151  1  0.72658700  0.37734800  0.26467156  1.0
  Y  Y152  1  0.72658700  0.71068133  0.26467156  1.0
  Y  Y153  1  0.10674633  0.21068133  0.26467156  1.0
  Y  Y154  1  0.10674633  0.54401467  0.26467156  1.0
  Y  Y155  1  0.10674633  0.87734800  0.26467156  1.0
  Y  Y156  1  0.44007967  0.21068133  0.26467156  1.0
  Y  Y157  1  0.44007967  0.54401467  0.26467156  1.0
  Y  Y158  1  0.44007967  0.87734800  0.26467156  1.0
  Y  Y159  1  0.77341300  0.21068133  0.26467156  1.0
  Y  Y160  1  0.77341300  0.54401467  0.26467156  1.0
  Y  Y161  1  0.77341300  0.87734800  0.26467156  1.0
  Y  Y162  1  0.27341300  0.28931867  0.29088400  1.0
  Y  Y163  1  0.27341300  0.62265200  0.29088400  1.0
  Y  Y164  1  0.27341300  0.95598533  0.29088400  1.0
  Y  Y165  1  0.60674633  0.28931867  0.29088400  1.0
  Y  Y166  1  0.60674633  0.62265200  0.29088400  1.0
  Y  Y167  1  0.60674633  0.95598533  0.29088400  1.0
  Y  Y168  1  0.94007967  0.28931867  0.29088400  1.0
  Y  Y169  1  0.94007967  0.62265200  0.29088400  1.0
  Y  Y170  1  0.94007967  0.95598533  0.29088400  1.0
  Y  Y171  1  0.22658700  0.12265200  0.29088400  1.0
  Y  Y172  1  0.22658700  0.45598533  0.29088400  1.0
  Y  Y173  1  0.22658700  0.78931867  0.29088400  1.0
  Y  Y174  1  0.55992033  0.12265200  0.29088400  1.0
  Y  Y175  1  0.55992033  0.45598533  0.29088400  1.0
  Y  Y176  1  0.55992033  0.78931867  0.29088400  1.0
  Y  Y177  1  0.89325367  0.12265200  0.29088400  1.0
  Y  Y178  1  0.89325367  0.45598533  0.29088400  1.0
  Y  Y179  1  0.89325367  0.78931867  0.29088400  1.0
  Ni  Ni180  1  0.01202600  0.20764533  0.31921511  1.0
  Ni  Ni181  1  0.01202600  0.54097867  0.31921511  1.0
  Ni  Ni182  1  0.01202600  0.87431200  0.31921511  1.0
  Ni  Ni183  1  0.34535933  0.20764533  0.31921511  1.0
  Ni  Ni184  1  0.34535933  0.54097867  0.31921511  1.0
  Ni  Ni185  1  0.34535933  0.87431200  0.31921511  1.0
  Ni  Ni186  1  0.67869267  0.20764533  0.31921511  1.0
  Ni  Ni187  1  0.67869267  0.54097867  0.31921511  1.0
  Ni  Ni188  1  0.67869267  0.87431200  0.31921511  1.0
  Ni  Ni189  1  0.15464067  0.04097867  0.31921511  1.0
  Ni  Ni190  1  0.15464067  0.37431200  0.31921511  1.0
  Ni  Ni191  1  0.15464067  0.70764533  0.31921511  1.0
  Ni  Ni192  1  0.48797400  0.04097867  0.31921511  1.0
  Ni  Ni193  1  0.48797400  0.37431200  0.31921511  1.0
  Ni  Ni194  1  0.48797400  0.70764533  0.31921511  1.0
  Ni  Ni195  1  0.82130733  0.04097867  0.31921511  1.0
  Ni  Ni196  1  0.82130733  0.37431200  0.31921511  1.0
  Ni  Ni197  1  0.82130733  0.70764533  0.31921511  1.0
  Ni  Ni198  1  0.32130733  0.12568800  0.23634044  1.0
  Ni  Ni199  1  0.32130733  0.45902133  0.23634044  1.0
  Ni  Ni200  1  0.32130733  0.79235467  0.23634044  1.0
  Ni  Ni201  1  0.65464067  0.12568800  0.23634044  1.0
  Ni  Ni202  1  0.65464067  0.45902133  0.23634044  1.0
  Ni  Ni203  1  0.65464067  0.79235467  0.23634044  1.0
  Ni  Ni204  1  0.98797400  0.12568800  0.23634044  1.0
  Ni  Ni205  1  0.98797400  0.45902133  0.23634044  1.0
  Ni  Ni206  1  0.98797400  0.79235467  0.23634044  1.0
  Ni  Ni207  1  0.17869267  0.29235467  0.23634044  1.0
  Ni  Ni208  1  0.17869267  0.62568800  0.23634044  1.0
  Ni  Ni209  1  0.17869267  0.95902133  0.23634044  1.0
  Ni  Ni210  1  0.51202600  0.29235467  0.23634044  1.0
  Ni  Ni211  1  0.51202600  0.62568800  0.23634044  1.0
  Ni  Ni212  1  0.51202600  0.95902133  0.23634044  1.0
  Ni  Ni213  1  0.84535933  0.29235467  0.23634044  1.0
  Ni  Ni214  1  0.84535933  0.62568800  0.23634044  1.0
  Ni  Ni215  1  0.84535933  0.95902133  0.23634044  1.0
  Y  Y216  1  0.05992033  0.04401467  0.37578267  1.0
  Y  Y217  1  0.05992033  0.37734800  0.37578267  1.0
  Y  Y218  1  0.05992033  0.71068133  0.37578267  1.0
  Y  Y219  1  0.39325367  0.04401467  0.37578267  1.0
  Y  Y220  1  0.39325367  0.37734800  0.37578267  1.0
  Y  Y221  1  0.39325367  0.71068133  0.37578267  1.0
  Y  Y222  1  0.72658700  0.04401467  0.37578267  1.0
  Y  Y223  1  0.72658700  0.37734800  0.37578267  1.0
  Y  Y224  1  0.72658700  0.71068133  0.37578267  1.0
  Y  Y225  1  0.10674633  0.21068133  0.37578267  1.0
  Y  Y226  1  0.10674633  0.54401467  0.37578267  1.0
  Y  Y227  1  0.10674633  0.87734800  0.37578267  1.0
  Y  Y228  1  0.44007967  0.21068133  0.37578267  1.0
  Y  Y229  1  0.44007967  0.54401467  0.37578267  1.0
  Y  Y230  1  0.44007967  0.87734800  0.37578267  1.0
  Y  Y231  1  0.77341300  0.21068133  0.37578267  1.0
  Y  Y232  1  0.77341300  0.54401467  0.37578267  1.0
  Y  Y233  1  0.77341300  0.87734800  0.37578267  1.0
  Y  Y234  1  0.27341300  0.28931867  0.40199511  1.0
  Y  Y235  1  0.27341300  0.62265200  0.40199511  1.0
  Y  Y236  1  0.27341300  0.95598533  0.40199511  1.0
  Y  Y237  1  0.60674633  0.28931867  0.40199511  1.0
  Y  Y238  1  0.60674633  0.62265200  0.40199511  1.0
  Y  Y239  1  0.60674633  0.95598533  0.40199511  1.0
  Y  Y240  1  0.94007967  0.28931867  0.40199511  1.0
  Y  Y241  1  0.94007967  0.62265200  0.40199511  1.0
  Y  Y242  1  0.94007967  0.95598533  0.40199511  1.0
  Y  Y243  1  0.22658700  0.12265200  0.40199511  1.0
  Y  Y244  1  0.22658700  0.45598533  0.40199511  1.0
  Y  Y245  1  0.22658700  0.78931867  0.40199511  1.0
  Y  Y246  1  0.55992033  0.12265200  0.40199511  1.0
  Y  Y247  1  0.55992033  0.45598533  0.40199511  1.0
  Y  Y248  1  0.55992033  0.78931867  0.40199511  1.0
  Y  Y249  1  0.89325367  0.12265200  0.40199511  1.0
  Y  Y250  1  0.89325367  0.45598533  0.40199511  1.0
  Y  Y251  1  0.89325367  0.78931867  0.40199511  1.0
  Ni  Ni252  1  0.01202600  0.20764533  0.43032622  1.0
  Ni  Ni253  1  0.01202600  0.54097867  0.43032622  1.0
  Ni  Ni254  1  0.01202600  0.87431200  0.43032622  1.0
  Ni  Ni255  1  0.34535933  0.20764533  0.43032622  1.0
  Ni  Ni256  1  0.34535933  0.54097867  0.43032622  1.0
  Ni  Ni257  1  0.34535933  0.87431200  0.43032622  1.0
  Ni  Ni258  1  0.67869267  0.20764533  0.43032622  1.0
  Ni  Ni259  1  0.67869267  0.54097867  0.43032622  1.0
  Ni  Ni260  1  0.67869267  0.87431200  0.43032622  1.0
  Ni  Ni261  1  0.15464067  0.04097867  0.43032622  1.0
  Ni  Ni262  1  0.15464067  0.37431200  0.43032622  1.0
  Ni  Ni263  1  0.15464067  0.70764533  0.43032622  1.0
  Ni  Ni264  1  0.48797400  0.04097867  0.43032622  1.0
  Ni  Ni265  1  0.48797400  0.37431200  0.43032622  1.0
  Ni  Ni266  1  0.48797400  0.70764533  0.43032622  1.0
  Ni  Ni267  1  0.82130733  0.04097867  0.43032622  1.0
  Ni  Ni268  1  0.82130733  0.37431200  0.43032622  1.0
  Ni  Ni269  1  0.82130733  0.70764533  0.43032622  1.0
  Ni  Ni270  1  0.32130733  0.12568800  0.34745156  1.0
  Ni  Ni271  1  0.32130733  0.45902133  0.34745156  1.0
  Ni  Ni272  1  0.32130733  0.79235467  0.34745156  1.0
  Ni  Ni273  1  0.65464067  0.12568800  0.34745156  1.0
  Ni  Ni274  1  0.65464067  0.45902133  0.34745156  1.0
  Ni  Ni275  1  0.65464067  0.79235467  0.34745156  1.0
  Ni  Ni276  1  0.98797400  0.12568800  0.34745156  1.0
  Ni  Ni277  1  0.98797400  0.45902133  0.34745156  1.0
  Ni  Ni278  1  0.98797400  0.79235467  0.34745156  1.0
  Ni  Ni279  1  0.17869267  0.29235467  0.34745156  1.0
  Ni  Ni280  1  0.17869267  0.62568800  0.34745156  1.0
  Ni  Ni281  1  0.17869267  0.95902133  0.34745156  1.0
  Ni  Ni282  1  0.51202600  0.29235467  0.34745156  1.0
  Ni  Ni283  1  0.51202600  0.62568800  0.34745156  1.0
  Ni  Ni284  1  0.51202600  0.95902133  0.34745156  1.0
  Ni  Ni285  1  0.84535933  0.29235467  0.34745156  1.0
  Ni  Ni286  1  0.84535933  0.62568800  0.34745156  1.0
  Ni  Ni287  1  0.84535933  0.95902133  0.34745156  1.0
