# generated using pymatgen
data_YNi
_symmetry_space_group_name_H-M   'P 1'
_cell_length_a   12.39373500
_cell_length_b   39.25789556
_cell_length_c   35.72749000
_cell_angle_alpha   56.90404137
_cell_angle_beta   90.00000000
_cell_angle_gamma   90.00000000
_symmetry_Int_Tables_number   1
_chemical_formula_structural   YNi
_chemical_formula_sum   'Y144 Ni144'
_cell_volume   14562.96863830
_cell_formula_units_Z   144
loop_
 _symmetry_equiv_pos_site_id
 _symmetry_equiv_pos_as_xyz
  1  'x, y, z'
loop_
 _atom_site_type_symbol
 _atom_site_label
 _atom_site_symmetry_multiplicity
 _atom_site_fract_x
 _atom_site_fract_y
 _atom_site_fract_z
 _atom_site_occupancy
  Y  Y0  1  0.08333333  0.14465933  0.14915660  1.0
  Y  Y1  1  0.08333333  0.47799267  0.14915660  1.0
  Y  Y2  1  0.08333333  0.81132600  0.14915660  1.0
  Y  Y3  1  0.41666667  0.14465933  0.14915660  1.0
  Y  Y4  1  0.41666667  0.47799267  0.14915660  1.0
  Y  Y5  1  0.41666667  0.81132600  0.14915660  1.0
  Y  Y6  1  0.75000000  0.14465933  0.14915660  1.0
  Y  Y7  1  0.75000000  0.47799267  0.14915660  1.0
  Y  Y8  1  0.75000000  0.81132600  0.14915660  1.0
  Y  Y9  1  0.08333333  0.31132600  0.04915660  1.0
  Y  Y10  1  0.08333333  0.64465933  0.04915660  1.0
  Y  Y11  1  0.08333333  0.97799267  0.04915660  1.0
  Y  Y12  1  0.41666667  0.31132600  0.04915660  1.0
  Y  Y13  1  0.41666667  0.64465933  0.04915660  1.0
  Y  Y14  1  0.41666667  0.97799267  0.04915660  1.0
  Y  Y15  1  0.75000000  0.31132600  0.04915660  1.0
  Y  Y16  1  0.75000000  0.64465933  0.04915660  1.0
  Y  Y17  1  0.75000000  0.97799267  0.04915660  1.0
  Y  Y18  1  0.25000000  0.06132600  0.02725220  1.0
  Y  Y19  1  0.25000000  0.39465933  0.02725220  1.0
  Y  Y20  1  0.25000000  0.72799267  0.02725220  1.0
  Y  Y21  1  0.58333333  0.06132600  0.02725220  1.0
  Y  Y22  1  0.58333333  0.39465933  0.02725220  1.0
  Y  Y23  1  0.58333333  0.72799267  0.02725220  1.0
  Y  Y24  1  0.91666667  0.06132600  0.02725220  1.0
  Y  Y25  1  0.91666667  0.39465933  0.02725220  1.0
  Y  Y26  1  0.91666667  0.72799267  0.02725220  1.0
  Y  Y27  1  0.25000000  0.22799267  0.12725220  1.0
  Y  Y28  1  0.25000000  0.56132600  0.12725220  1.0
  Y  Y29  1  0.25000000  0.89465933  0.12725220  1.0
  Y  Y30  1  0.58333333  0.22799267  0.12725220  1.0
  Y  Y31  1  0.58333333  0.56132600  0.12725220  1.0
  Y  Y32  1  0.58333333  0.89465933  0.12725220  1.0
  Y  Y33  1  0.91666667  0.22799267  0.12725220  1.0
  Y  Y34  1  0.91666667  0.56132600  0.12725220  1.0
  Y  Y35  1  0.91666667  0.89465933  0.12725220  1.0
  Y  Y36  1  0.25000000  0.02200733  0.15084340  1.0
  Y  Y37  1  0.25000000  0.35534067  0.15084340  1.0
  Y  Y38  1  0.25000000  0.68867400  0.15084340  1.0
  Y  Y39  1  0.58333333  0.02200733  0.15084340  1.0
  Y  Y40  1  0.58333333  0.35534067  0.15084340  1.0
  Y  Y41  1  0.58333333  0.68867400  0.15084340  1.0
  Y  Y42  1  0.91666667  0.02200733  0.15084340  1.0
  Y  Y43  1  0.91666667  0.35534067  0.15084340  1.0
  Y  Y44  1  0.91666667  0.68867400  0.15084340  1.0
  Y  Y45  1  0.25000000  0.18867400  0.05084340  1.0
  Y  Y46  1  0.25000000  0.52200733  0.05084340  1.0
  Y  Y47  1  0.25000000  0.85534067  0.05084340  1.0
  Y  Y48  1  0.58333333  0.18867400  0.05084340  1.0
  Y  Y49  1  0.58333333  0.52200733  0.05084340  1.0
  Y  Y50  1  0.58333333  0.85534067  0.05084340  1.0
  Y  Y51  1  0.91666667  0.18867400  0.05084340  1.0
  Y  Y52  1  0.91666667  0.52200733  0.05084340  1.0
  Y  Y53  1  0.91666667  0.85534067  0.05084340  1.0
  Y  Y54  1  0.08333333  0.10534067  0.07274780  1.0
  Y  Y55  1  0.08333333  0.43867400  0.07274780  1.0
  Y  Y56  1  0.08333333  0.77200733  0.07274780  1.0
  Y  Y57  1  0.41666667  0.10534067  0.07274780  1.0
  Y  Y58  1  0.41666667  0.43867400  0.07274780  1.0
  Y  Y59  1  0.41666667  0.77200733  0.07274780  1.0
  Y  Y60  1  0.75000000  0.10534067  0.07274780  1.0
  Y  Y61  1  0.75000000  0.43867400  0.07274780  1.0
  Y  Y62  1  0.75000000  0.77200733  0.07274780  1.0
  Y  Y63  1  0.08333333  0.27200733  0.17274780  1.0
  Y  Y64  1  0.08333333  0.60534067  0.17274780  1.0
  Y  Y65  1  0.08333333  0.93867400  0.17274780  1.0
  Y  Y66  1  0.41666667  0.27200733  0.17274780  1.0
  Y  Y67  1  0.41666667  0.60534067  0.17274780  1.0
  Y  Y68  1  0.41666667  0.93867400  0.17274780  1.0
  Y  Y69  1  0.75000000  0.27200733  0.17274780  1.0
  Y  Y70  1  0.75000000  0.60534067  0.17274780  1.0
  Y  Y71  1  0.75000000  0.93867400  0.17274780  1.0
  Ni  Ni72  1  0.08333333  0.06284400  0.16950920  1.0
  Ni  Ni73  1  0.08333333  0.39617733  0.16950920  1.0
  Ni  Ni74  1  0.08333333  0.72951067  0.16950920  1.0
  Ni  Ni75  1  0.41666667  0.06284400  0.16950920  1.0
  Ni  Ni76  1  0.41666667  0.39617733  0.16950920  1.0
  Ni  Ni77  1  0.41666667  0.72951067  0.16950920  1.0
  Ni  Ni78  1  0.75000000  0.06284400  0.16950920  1.0
  Ni  Ni79  1  0.75000000  0.39617733  0.16950920  1.0
  Ni  Ni80  1  0.75000000  0.72951067  0.16950920  1.0
  Ni  Ni81  1  0.08333333  0.22951067  0.06950920  1.0
  Ni  Ni82  1  0.08333333  0.56284400  0.06950920  1.0
  Ni  Ni83  1  0.08333333  0.89617733  0.06950920  1.0
  Ni  Ni84  1  0.41666667  0.22951067  0.06950920  1.0
  Ni  Ni85  1  0.41666667  0.56284400  0.06950920  1.0
  Ni  Ni86  1  0.41666667  0.89617733  0.06950920  1.0
  Ni  Ni87  1  0.75000000  0.22951067  0.06950920  1.0
  Ni  Ni88  1  0.75000000  0.56284400  0.06950920  1.0
  Ni  Ni89  1  0.75000000  0.89617733  0.06950920  1.0
  Ni  Ni90  1  0.25000000  0.14617733  0.00507800  1.0
  Ni  Ni91  1  0.25000000  0.47951067  0.00507800  1.0
  Ni  Ni92  1  0.25000000  0.81284400  0.00507800  1.0
  Ni  Ni93  1  0.58333333  0.14617733  0.00507800  1.0
  Ni  Ni94  1  0.58333333  0.47951067  0.00507800  1.0
  Ni  Ni95  1  0.58333333  0.81284400  0.00507800  1.0
  Ni  Ni96  1  0.91666667  0.14617733  0.00507800  1.0
  Ni  Ni97  1  0.91666667  0.47951067  0.00507800  1.0
  Ni  Ni98  1  0.91666667  0.81284400  0.00507800  1.0
  Ni  Ni99  1  0.25000000  0.31284400  0.10507800  1.0
  Ni  Ni100  1  0.25000000  0.64617733  0.10507800  1.0
  Ni  Ni101  1  0.25000000  0.97951067  0.10507800  1.0
  Ni  Ni102  1  0.58333333  0.31284400  0.10507800  1.0
  Ni  Ni103  1  0.58333333  0.64617733  0.10507800  1.0
  Ni  Ni104  1  0.58333333  0.97951067  0.10507800  1.0
  Ni  Ni105  1  0.91666667  0.31284400  0.10507800  1.0
  Ni  Ni106  1  0.91666667  0.64617733  0.10507800  1.0
  Ni  Ni107  1  0.91666667  0.97951067  0.10507800  1.0
  Ni  Ni108  1  0.25000000  0.10382267  0.13049080  1.0
  Ni  Ni109  1  0.25000000  0.43715600  0.13049080  1.0
  Ni  Ni110  1  0.25000000  0.77048933  0.13049080  1.0
  Ni  Ni111  1  0.58333333  0.10382267  0.13049080  1.0
  Ni  Ni112  1  0.58333333  0.43715600  0.13049080  1.0
  Ni  Ni113  1  0.58333333  0.77048933  0.13049080  1.0
  Ni  Ni114  1  0.91666667  0.10382267  0.13049080  1.0
  Ni  Ni115  1  0.91666667  0.43715600  0.13049080  1.0
  Ni  Ni116  1  0.91666667  0.77048933  0.13049080  1.0
  Ni  Ni117  1  0.25000000  0.27048933  0.03049080  1.0
  Ni  Ni118  1  0.25000000  0.60382267  0.03049080  1.0
  Ni  Ni119  1  0.25000000  0.93715600  0.03049080  1.0
  Ni  Ni120  1  0.58333333  0.27048933  0.03049080  1.0
  Ni  Ni121  1  0.58333333  0.60382267  0.03049080  1.0
  Ni  Ni122  1  0.58333333  0.93715600  0.03049080  1.0
  Ni  Ni123  1  0.91666667  0.27048933  0.03049080  1.0
  Ni  Ni124  1  0.91666667  0.60382267  0.03049080  1.0
  Ni  Ni125  1  0.91666667  0.93715600  0.03049080  1.0
  Ni  Ni126  1  0.08333333  0.02048933  0.09492200  1.0
  Ni  Ni127  1  0.08333333  0.35382267  0.09492200  1.0
  Ni  Ni128  1  0.08333333  0.68715600  0.09492200  1.0
  Ni  Ni129  1  0.41666667  0.02048933  0.09492200  1.0
  Ni  Ni130  1  0.41666667  0.35382267  0.09492200  1.0
  Ni  Ni131  1  0.41666667  0.68715600  0.09492200  1.0
  Ni  Ni132  1  0.75000000  0.02048933  0.09492200  1.0
  Ni  Ni133  1  0.75000000  0.35382267  0.09492200  1.0
  Ni  Ni134  1  0.75000000  0.68715600  0.09492200  1.0
  Ni  Ni135  1  0.08333333  0.18715600  0.19492200  1.0
  Ni  Ni136  1  0.08333333  0.52048933  0.19492200  1.0
  Ni  Ni137  1  0.08333333  0.85382267  0.19492200  1.0
  Ni  Ni138  1  0.41666667  0.18715600  0.19492200  1.0
  Ni  Ni139  1  0.41666667  0.52048933  0.19492200  1.0
  Ni  Ni140  1  0.41666667  0.85382267  0.19492200  1.0
  Ni  Ni141  1  0.75000000  0.18715600  0.19492200  1.0
  Ni  Ni142  1  0.75000000  0.52048933  0.19492200  1.0
  Ni  Ni143  1  0.75000000  0.85382267  0.19492200  1.0
  Y  Y144  1  0.08333333  0.14465933  0.34915660  1.0
  Y  Y145  1  0.08333333  0.47799267  0.34915660  1.0
  Y  Y146  1  0.08333333  0.81132600  0.34915660  1.0
  Y  Y147  1  0.41666667  0.14465933  0.34915660  1.0
  Y  Y148  1  0.41666667  0.47799267  0.34915660  1.0
  Y  Y149  1  0.41666667  0.81132600  0.34915660  1.0
  Y  Y150  1  0.75000000  0.14465933  0.34915660  1.0
  Y  Y151  1  0.75000000  0.47799267  0.34915660  1.0
  Y  Y152  1  0.75000000  0.81132600  0.34915660  1.0
  Y  Y153  1  0.08333333  0.31132600  0.24915660  1.0
  Y  Y154  1  0.08333333  0.64465933  0.24915660  1.0
  Y  Y155  1  0.08333333  0.97799267  0.24915660  1.0
  Y  Y156  1  0.41666667  0.31132600  0.24915660  1.0
  Y  Y157  1  0.41666667  0.64465933  0.24915660  1.0
  Y  Y158  1  0.41666667  0.97799267  0.24915660  1.0
  Y  Y159  1  0.75000000  0.31132600  0.24915660  1.0
  Y  Y160  1  0.75000000  0.64465933  0.24915660  1.0
  Y  Y161  1  0.75000000  0.97799267  0.24915660  1.0
  Y  Y162  1  0.25000000  0.06132600  0.22725220  1.0
  Y  Y163  1  0.25000000  0.39465933  0.22725220  1.0
  Y  Y164  1  0.25000000  0.72799267  0.22725220  1.0
  Y  Y165  1  0.58333333  0.06132600  0.22725220  1.0
  Y  Y166  1  0.58333333  0.39465933  0.22725220  1.0
  Y  Y167  1  0.58333333  0.72799267  0.22725220  1.0
  Y  Y168  1  0.91666667  0.06132600  0.22725220  1.0
  Y  Y169  1  0.91666667  0.39465933  0.22725220  1.0
  Y  Y170  1  0.91666667  0.72799267  0.22725220  1.0
  Y  Y171  1  0.25000000  0.22799267  0.32725220  1.0
  Y  Y172  1  0.25000000  0.56132600  0.32725220  1.0
  Y  Y173  1  0.25000000  0.89465933  0.32725220  1.0
  Y  Y174  1  0.58333333  0.22799267  0.32725220  1.0
  Y  Y175  1  0.58333333  0.56132600  0.32725220  1.0
  Y  Y176  1  0.58333333  0.89465933  0.32725220  1.0
  Y  Y177  1  0.91666667  0.22799267  0.32725220  1.0
  Y  Y178  1  0.91666667  0.56132600  0.32725220  1.0
  Y  Y179  1  0.91666667  0.89465933  0.32725220  1.0
  Y  Y180  1  0.25000000  0.02200733  0.35084340  1.0
  Y  Y181  1  0.25000000  0.35534067  0.35084340  1.0
  Y  Y182  1  0.25000000  0.68867400  0.35084340  1.0
  Y  Y183  1  0.58333333  0.02200733  0.35084340  1.0
  Y  Y184  1  0.58333333  0.35534067  0.35084340  1.0
  Y  Y185  1  0.58333333  0.68867400  0.35084340  1.0
  Y  Y186  1  0.91666667  0.02200733  0.35084340  1.0
  Y  Y187  1  0.91666667  0.35534067  0.35084340  1.0
  Y  Y188  1  0.91666667  0.68867400  0.35084340  1.0
  Y  Y189  1  0.25000000  0.18867400  0.25084340  1.0
  Y  Y190  1  0.25000000  0.52200733  0.25084340  1.0
  Y  Y191  1  0.25000000  0.85534067  0.25084340  1.0
  Y  Y192  1  0.58333333  0.18867400  0.25084340  1.0
  Y  Y193  1  0.58333333  0.52200733  0.25084340  1.0
  Y  Y194  1  0.58333333  0.85534067  0.25084340  1.0
  Y  Y195  1  0.91666667  0.18867400  0.25084340  1.0
  Y  Y196  1  0.91666667  0.52200733  0.25084340  1.0
  Y  Y197  1  0.91666667  0.85534067  0.25084340  1.0
  Y  Y198  1  0.08333333  0.10534067  0.27274780  1.0
  Y  Y199  1  0.08333333  0.43867400  0.27274780  1.0
  Y  Y200  1  0.08333333  0.77200733  0.27274780  1.0
  Y  Y201  1  0.41666667  0.10534067  0.27274780  1.0
  Y  Y202  1  0.41666667  0.43867400  0.27274780  1.0
  Y  Y203  1  0.41666667  0.77200733  0.27274780  1.0
  Y  Y204  1  0.75000000  0.10534067  0.27274780  1.0
  Y  Y205  1  0.75000000  0.43867400  0.27274780  1.0
  Y  Y206  1  0.75000000  0.77200733  0.27274780  1.0
  Y  Y207  1  0.08333333  0.27200733  0.37274780  1.0
  Y  Y208  1  0.08333333  0.60534067  0.37274780  1.0
  Y  Y209  1  0.08333333  0.93867400  0.37274780  1.0
  Y  Y210  1  0.41666667  0.27200733  0.37274780  1.0
  Y  Y211  1  0.41666667  0.60534067  0.37274780  1.0
  Y  Y212  1  0.41666667  0.93867400  0.37274780  1.0
  Y  Y213  1  0.75000000  0.27200733  0.37274780  1.0
  Y  Y214  1  0.75000000  0.60534067  0.37274780  1.0
  Y  Y215  1  0.75000000  0.93867400  0.37274780  1.0
  Ni  Ni216  1  0.08333333  0.06284400  0.36950920  1.0
  Ni  Ni217  1  0.08333333  0.39617733  0.36950920  1.0
  Ni  Ni218  1  0.08333333  0.72951067  0.36950920  1.0
  Ni  Ni219  1  0.41666667  0.06284400  0.36950920  1.0
  Ni  Ni220  1  0.41666667  0.39617733  0.36950920  1.0
  Ni  Ni221  1  0.41666667  0.72951067  0.36950920  1.0
  Ni  Ni222  1  0.75000000  0.06284400  0.36950920  1.0
  Ni  Ni223  1  0.75000000  0.39617733  0.36950920  1.0
  Ni  Ni224  1  0.75000000  0.72951067  0.36950920  1.0
  Ni  Ni225  1  0.08333333  0.22951067  0.26950920  1.0
  Ni  Ni226  1  0.08333333  0.56284400  0.26950920  1.0
  Ni  Ni227  1  0.08333333  0.89617733  0.26950920  1.0
  Ni  Ni228  1  0.41666667  0.22951067  0.26950920  1.0
  Ni  Ni229  1  0.41666667  0.56284400  0.26950920  1.0
  Ni  Ni230  1  0.41666667  0.89617733  0.26950920  1.0
  Ni  Ni231  1  0.75000000  0.22951067  0.26950920  1.0
  Ni  Ni232  1  0.75000000  0.56284400  0.26950920  1.0
  Ni  Ni233  1  0.75000000  0.89617733  0.26950920  1.0
  Ni  Ni234  1  0.25000000  0.14617733  0.20507800  1.0
  Ni  Ni235  1  0.25000000  0.47951067  0.20507800  1.0
  Ni  Ni236  1  0.25000000  0.81284400  0.20507800  1.0
  Ni  Ni237  1  0.58333333  0.14617733  0.20507800  1.0
  Ni  Ni238  1  0.58333333  0.47951067  0.20507800  1.0
  Ni  Ni239  1  0.58333333  0.81284400  0.20507800  1.0
  Ni  Ni240  1  0.91666667  0.14617733  0.20507800  1.0
  Ni  Ni241  1  0.91666667  0.47951067  0.20507800  1.0
  Ni  Ni242  1  0.91666667  0.81284400  0.20507800  1.0
  Ni  Ni243  1  0.25000000  0.31284400  0.30507800  1.0
  Ni  Ni244  1  0.25000000  0.64617733  0.30507800  1.0
  Ni  Ni245  1  0.25000000  0.97951067  0.30507800  1.0
  Ni  Ni246  1  0.58333333  0.31284400  0.30507800  1.0
  Ni  Ni247  1  0.58333333  0.64617733  0.30507800  1.0
  Ni  Ni248  1  0.58333333  0.97951067  0.30507800  1.0
  Ni  Ni249  1  0.91666667  0.31284400  0.30507800  1.0
  Ni  Ni250  1  0.91666667  0.64617733  0.30507800  1.0
  Ni  Ni251  1  0.91666667  0.97951067  0.30507800  1.0
  Ni  Ni252  1  0.25000000  0.10382267  0.33049080  1.0
  Ni  Ni253  1  0.25000000  0.43715600  0.33049080  1.0
  Ni  Ni254  1  0.25000000  0.77048933  0.33049080  1.0
  Ni  Ni255  1  0.58333333  0.10382267  0.33049080  1.0
  Ni  Ni256  1  0.58333333  0.43715600  0.33049080  1.0
  Ni  Ni257  1  0.58333333  0.77048933  0.33049080  1.0
  Ni  Ni258  1  0.91666667  0.10382267  0.33049080  1.0
  Ni  Ni259  1  0.91666667  0.43715600  0.33049080  1.0
  Ni  Ni260  1  0.91666667  0.77048933  0.33049080  1.0
  Ni  Ni261  1  0.25000000  0.27048933  0.23049080  1.0
  Ni  Ni262  1  0.25000000  0.60382267  0.23049080  1.0
  Ni  Ni263  1  0.25000000  0.93715600  0.23049080  1.0
  Ni  Ni264  1  0.58333333  0.27048933  0.23049080  1.0
  Ni  Ni265  1  0.58333333  0.60382267  0.23049080  1.0
  Ni  Ni266  1  0.58333333  0.93715600  0.23049080  1.0
  Ni  Ni267  1  0.91666667  0.27048933  0.23049080  1.0
  Ni  Ni268  1  0.91666667  0.60382267  0.23049080  1.0
  Ni  Ni269  1  0.91666667  0.93715600  0.23049080  1.0
  Ni  Ni270  1  0.08333333  0.02048933  0.29492200  1.0
  Ni  Ni271  1  0.08333333  0.35382267  0.29492200  1.0
  Ni  Ni272  1  0.08333333  0.68715600  0.29492200  1.0
  Ni  Ni273  1  0.41666667  0.02048933  0.29492200  1.0
  Ni  Ni274  1  0.41666667  0.35382267  0.29492200  1.0
  Ni  Ni275  1  0.41666667  0.68715600  0.29492200  1.0
  Ni  Ni276  1  0.75000000  0.02048933  0.29492200  1.0
  Ni  Ni277  1  0.75000000  0.35382267  0.29492200  1.0
  Ni  Ni278  1  0.75000000  0.68715600  0.29492200  1.0
  Ni  Ni279  1  0.08333333  0.18715600  0.39492200  1.0
  Ni  Ni280  1  0.08333333  0.52048933  0.39492200  1.0
  Ni  Ni281  1  0.08333333  0.85382267  0.39492200  1.0
  Ni  Ni282  1  0.41666667  0.18715600  0.39492200  1.0
  Ni  Ni283  1  0.41666667  0.52048933  0.39492200  1.0
  Ni  Ni284  1  0.41666667  0.85382267  0.39492200  1.0
  Ni  Ni285  1  0.75000000  0.18715600  0.39492200  1.0
  Ni  Ni286  1  0.75000000  0.52048933  0.39492200  1.0
  Ni  Ni287  1  0.75000000  0.85382267  0.39492200  1.0
