# generated using pymatgen
data_YNi
_symmetry_space_group_name_H-M   'P 1'
_cell_length_a   27.01736566
_cell_length_b   29.72444641
_cell_length_c   30.28855072
_cell_angle_alpha   97.34495403
_cell_angle_beta   94.41795598
_cell_angle_gamma   103.61992691
_symmetry_Int_Tables_number   1
_chemical_formula_structural   YNi
_chemical_formula_sum   'Y216 Ni216'
_cell_volume   23300.74982128
_cell_formula_units_Z   216
loop_
 _symmetry_equiv_pos_site_id
 _symmetry_equiv_pos_as_xyz
  1  'x, y, z'
loop_
 _atom_site_type_symbol
 _atom_site_label
 _atom_site_symmetry_multiplicity
 _atom_site_fract_x
 _atom_site_fract_y
 _atom_site_fract_z
 _atom_site_occupancy
  Ni  Ni0  1  0.23552367  0.20597713  0.05256163  1.0
  Ni  Ni1  1  0.23552367  0.53931046  0.05256163  1.0
  Ni  Ni2  1  0.23552367  0.87264379  0.05256163  1.0
  Ni  Ni3  1  0.56885700  0.20597713  0.05256163  1.0
  Ni  Ni4  1  0.56885700  0.53931046  0.05256163  1.0
  Ni  Ni5  1  0.56885700  0.87264379  0.05256163  1.0
  Ni  Ni6  1  0.90219033  0.20597713  0.05256163  1.0
  Ni  Ni7  1  0.90219033  0.53931046  0.05256163  1.0
  Ni  Ni8  1  0.90219033  0.87264379  0.05256163  1.0
  Ni  Ni9  1  0.06885700  0.01847713  0.11506162  1.0
  Ni  Ni10  1  0.06885700  0.35181046  0.11506163  1.0
  Ni  Ni11  1  0.06885700  0.68514379  0.11506162  1.0
  Ni  Ni12  1  0.40219033  0.01847713  0.11506162  1.0
  Ni  Ni13  1  0.40219033  0.35181046  0.11506163  1.0
  Ni  Ni14  1  0.40219033  0.68514379  0.11506162  1.0
  Ni  Ni15  1  0.73552367  0.01847713  0.11506162  1.0
  Ni  Ni16  1  0.73552367  0.35181046  0.11506162  1.0
  Ni  Ni17  1  0.73552367  0.68514379  0.11506162  1.0
  Ni  Ni18  1  0.05683100  0.19566654  0.11957138  1.0
  Ni  Ni19  1  0.05683100  0.52899988  0.11957138  1.0
  Ni  Ni20  1  0.05683100  0.86233321  0.11957138  1.0
  Ni  Ni21  1  0.39016433  0.19566654  0.11957138  1.0
  Ni  Ni22  1  0.39016433  0.52899988  0.11957138  1.0
  Ni  Ni23  1  0.39016433  0.86233321  0.11957138  1.0
  Ni  Ni24  1  0.72349767  0.19566654  0.11957138  1.0
  Ni  Ni25  1  0.72349767  0.52899988  0.11957138  1.0
  Ni  Ni26  1  0.72349767  0.86233321  0.11957138  1.0
  Ni  Ni27  1  0.22349767  0.04983321  0.05707138  1.0
  Ni  Ni28  1  0.22349767  0.38316654  0.05707138  1.0
  Ni  Ni29  1  0.22349767  0.71649988  0.05707138  1.0
  Ni  Ni30  1  0.55683100  0.04983321  0.05707138  1.0
  Ni  Ni31  1  0.55683100  0.38316654  0.05707138  1.0
  Ni  Ni32  1  0.55683100  0.71649988  0.05707138  1.0
  Ni  Ni33  1  0.89016433  0.04983321  0.05707138  1.0
  Ni  Ni34  1  0.89016433  0.38316654  0.05707138  1.0
  Ni  Ni35  1  0.89016433  0.71649988  0.05707138  1.0
  Ni  Ni36  1  0.09780967  0.08568954  0.07243837  1.0
  Ni  Ni37  1  0.09780967  0.41902288  0.07243838  1.0
  Ni  Ni38  1  0.09780967  0.75235621  0.07243838  1.0
  Ni  Ni39  1  0.43114300  0.08568954  0.07243837  1.0
  Ni  Ni40  1  0.43114300  0.41902288  0.07243838  1.0
  Ni  Ni41  1  0.43114300  0.75235621  0.07243838  1.0
  Ni  Ni42  1  0.76447633  0.08568954  0.07243837  1.0
  Ni  Ni43  1  0.76447633  0.41902288  0.07243838  1.0
  Ni  Ni44  1  0.76447633  0.75235621  0.07243838  1.0
  Ni  Ni45  1  0.26447633  0.27318954  0.00993838  1.0
  Ni  Ni46  1  0.26447633  0.60652288  0.00993838  1.0
  Ni  Ni47  1  0.26447633  0.93985621  0.00993837  1.0
  Ni  Ni48  1  0.59780967  0.27318954  0.00993837  1.0
  Ni  Ni49  1  0.59780967  0.60652288  0.00993838  1.0
  Ni  Ni50  1  0.59780967  0.93985621  0.00993837  1.0
  Ni  Ni51  1  0.93114300  0.27318954  0.00993838  1.0
  Ni  Ni52  1  0.93114300  0.60652288  0.00993838  1.0
  Ni  Ni53  1  0.93114300  0.93985621  0.00993837  1.0
  Ni  Ni54  1  0.27650233  0.09600013  0.00542863  1.0
  Ni  Ni55  1  0.27650233  0.42933346  0.00542863  1.0
  Ni  Ni56  1  0.27650233  0.76266679  0.00542863  1.0
  Ni  Ni57  1  0.60983567  0.09600013  0.00542863  1.0
  Ni  Ni58  1  0.60983567  0.42933346  0.00542863  1.0
  Ni  Ni59  1  0.60983567  0.76266679  0.00542863  1.0
  Ni  Ni60  1  0.94316900  0.09600013  0.00542863  1.0
  Ni  Ni61  1  0.94316900  0.42933346  0.00542863  1.0
  Ni  Ni62  1  0.94316900  0.76266679  0.00542863  1.0
  Ni  Ni63  1  0.10983567  0.24183346  0.06792863  1.0
  Ni  Ni64  1  0.10983567  0.57516679  0.06792863  1.0
  Ni  Ni65  1  0.10983567  0.90850013  0.06792863  1.0
  Ni  Ni66  1  0.44316900  0.24183346  0.06792863  1.0
  Ni  Ni67  1  0.44316900  0.57516679  0.06792863  1.0
  Ni  Ni68  1  0.44316900  0.90850013  0.06792863  1.0
  Ni  Ni69  1  0.77650233  0.24183346  0.06792863  1.0
  Ni  Ni70  1  0.77650233  0.57516679  0.06792863  1.0
  Ni  Ni71  1  0.77650233  0.90850013  0.06792863  1.0
  Ni  Ni72  1  0.23552367  0.16431046  0.17756163  1.0
  Ni  Ni73  1  0.23552367  0.49764379  0.17756163  1.0
  Ni  Ni74  1  0.23552367  0.83097712  0.17756163  1.0
  Ni  Ni75  1  0.56885700  0.16431046  0.17756163  1.0
  Ni  Ni76  1  0.56885700  0.49764379  0.17756163  1.0
  Ni  Ni77  1  0.56885700  0.83097712  0.17756163  1.0
  Ni  Ni78  1  0.90219033  0.16431046  0.17756163  1.0
  Ni  Ni79  1  0.90219033  0.49764379  0.17756163  1.0
  Ni  Ni80  1  0.90219033  0.83097712  0.17756163  1.0
  Ni  Ni81  1  0.06885700  0.31014379  0.24006163  1.0
  Ni  Ni82  1  0.06885700  0.64347712  0.24006163  1.0
  Ni  Ni83  1  0.06885700  0.97681046  0.24006163  1.0
  Ni  Ni84  1  0.40219033  0.31014379  0.24006163  1.0
  Ni  Ni85  1  0.40219033  0.64347712  0.24006163  1.0
  Ni  Ni86  1  0.40219033  0.97681046  0.24006163  1.0
  Ni  Ni87  1  0.73552367  0.31014379  0.24006163  1.0
  Ni  Ni88  1  0.73552367  0.64347712  0.24006163  1.0
  Ni  Ni89  1  0.73552367  0.97681046  0.24006163  1.0
  Ni  Ni90  1  0.05683100  0.15399988  0.24457138  1.0
  Ni  Ni91  1  0.05683100  0.48733321  0.24457138  1.0
  Ni  Ni92  1  0.05683100  0.82066654  0.24457138  1.0
  Ni  Ni93  1  0.39016433  0.15399988  0.24457138  1.0
  Ni  Ni94  1  0.39016433  0.48733321  0.24457138  1.0
  Ni  Ni95  1  0.39016433  0.82066654  0.24457138  1.0
  Ni  Ni96  1  0.72349767  0.15399988  0.24457138  1.0
  Ni  Ni97  1  0.72349767  0.48733321  0.24457138  1.0
  Ni  Ni98  1  0.72349767  0.82066654  0.24457138  1.0
  Ni  Ni99  1  0.22349767  0.00816654  0.18207138  1.0
  Ni  Ni100  1  0.22349767  0.34149988  0.18207138  1.0
  Ni  Ni101  1  0.22349767  0.67483321  0.18207138  1.0
  Ni  Ni102  1  0.55683100  0.00816654  0.18207138  1.0
  Ni  Ni103  1  0.55683100  0.34149988  0.18207138  1.0
  Ni  Ni104  1  0.55683100  0.67483321  0.18207138  1.0
  Ni  Ni105  1  0.89016433  0.00816654  0.18207138  1.0
  Ni  Ni106  1  0.89016433  0.34149988  0.18207138  1.0
  Ni  Ni107  1  0.89016433  0.67483321  0.18207138  1.0
  Ni  Ni108  1  0.09780967  0.04402288  0.19743837  1.0
  Ni  Ni109  1  0.09780967  0.37735621  0.19743837  1.0
  Ni  Ni110  1  0.09780967  0.71068954  0.19743837  1.0
  Ni  Ni111  1  0.43114300  0.04402288  0.19743837  1.0
  Ni  Ni112  1  0.43114300  0.37735621  0.19743837  1.0
  Ni  Ni113  1  0.43114300  0.71068954  0.19743837  1.0
  Ni  Ni114  1  0.76447633  0.04402288  0.19743837  1.0
  Ni  Ni115  1  0.76447633  0.37735621  0.19743837  1.0
  Ni  Ni116  1  0.76447633  0.71068954  0.19743837  1.0
  Ni  Ni117  1  0.26447633  0.23152288  0.13493837  1.0
  Ni  Ni118  1  0.26447633  0.56485621  0.13493838  1.0
  Ni  Ni119  1  0.26447633  0.89818954  0.13493838  1.0
  Ni  Ni120  1  0.59780967  0.23152288  0.13493837  1.0
  Ni  Ni121  1  0.59780967  0.56485621  0.13493838  1.0
  Ni  Ni122  1  0.59780967  0.89818954  0.13493838  1.0
  Ni  Ni123  1  0.93114300  0.23152288  0.13493837  1.0
  Ni  Ni124  1  0.93114300  0.56485621  0.13493838  1.0
  Ni  Ni125  1  0.93114300  0.89818954  0.13493838  1.0
  Ni  Ni126  1  0.27650233  0.05433346  0.13042863  1.0
  Ni  Ni127  1  0.27650233  0.38766679  0.13042863  1.0
  Ni  Ni128  1  0.27650233  0.72100013  0.13042863  1.0
  Ni  Ni129  1  0.60983567  0.05433346  0.13042863  1.0
  Ni  Ni130  1  0.60983567  0.38766679  0.13042863  1.0
  Ni  Ni131  1  0.60983567  0.72100013  0.13042863  1.0
  Ni  Ni132  1  0.94316900  0.05433346  0.13042863  1.0
  Ni  Ni133  1  0.94316900  0.38766679  0.13042863  1.0
  Ni  Ni134  1  0.94316900  0.72100013  0.13042863  1.0
  Ni  Ni135  1  0.10983567  0.20016679  0.19292863  1.0
  Ni  Ni136  1  0.10983567  0.53350013  0.19292863  1.0
  Ni  Ni137  1  0.10983567  0.86683346  0.19292863  1.0
  Ni  Ni138  1  0.44316900  0.20016679  0.19292863  1.0
  Ni  Ni139  1  0.44316900  0.53350013  0.19292863  1.0
  Ni  Ni140  1  0.44316900  0.86683346  0.19292863  1.0
  Ni  Ni141  1  0.77650233  0.20016679  0.19292863  1.0
  Ni  Ni142  1  0.77650233  0.53350013  0.19292863  1.0
  Ni  Ni143  1  0.77650233  0.86683346  0.19292863  1.0
  Ni  Ni144  1  0.23552367  0.12264379  0.30256163  1.0
  Ni  Ni145  1  0.23552367  0.45597713  0.30256163  1.0
  Ni  Ni146  1  0.23552367  0.78931046  0.30256163  1.0
  Ni  Ni147  1  0.56885700  0.12264379  0.30256163  1.0
  Ni  Ni148  1  0.56885700  0.45597713  0.30256163  1.0
  Ni  Ni149  1  0.56885700  0.78931046  0.30256163  1.0
  Ni  Ni150  1  0.90219033  0.12264379  0.30256163  1.0
  Ni  Ni151  1  0.90219033  0.45597713  0.30256163  1.0
  Ni  Ni152  1  0.90219033  0.78931046  0.30256163  1.0
  Ni  Ni153  1  0.06885700  0.26847712  0.36506163  1.0
  Ni  Ni154  1  0.06885700  0.60181046  0.36506163  1.0
  Ni  Ni155  1  0.06885700  0.93514379  0.36506163  1.0
  Ni  Ni156  1  0.40219033  0.26847712  0.36506163  1.0
  Ni  Ni157  1  0.40219033  0.60181046  0.36506163  1.0
  Ni  Ni158  1  0.40219033  0.93514379  0.36506163  1.0
  Ni  Ni159  1  0.73552367  0.26847712  0.36506163  1.0
  Ni  Ni160  1  0.73552367  0.60181046  0.36506163  1.0
  Ni  Ni161  1  0.73552367  0.93514379  0.36506163  1.0
  Ni  Ni162  1  0.05683100  0.11233321  0.36957138  1.0
  Ni  Ni163  1  0.05683100  0.44566654  0.36957138  1.0
  Ni  Ni164  1  0.05683100  0.77899988  0.36957138  1.0
  Ni  Ni165  1  0.39016433  0.11233321  0.36957138  1.0
  Ni  Ni166  1  0.39016433  0.44566654  0.36957138  1.0
  Ni  Ni167  1  0.39016433  0.77899988  0.36957138  1.0
  Ni  Ni168  1  0.72349767  0.11233321  0.36957138  1.0
  Ni  Ni169  1  0.72349767  0.44566654  0.36957138  1.0
  Ni  Ni170  1  0.72349767  0.77899988  0.36957138  1.0
  Ni  Ni171  1  0.22349767  0.29983321  0.30707138  1.0
  Ni  Ni172  1  0.22349767  0.63316654  0.30707138  1.0
  Ni  Ni173  1  0.22349767  0.96649988  0.30707138  1.0
  Ni  Ni174  1  0.55683100  0.29983321  0.30707138  1.0
  Ni  Ni175  1  0.55683100  0.63316654  0.30707138  1.0
  Ni  Ni176  1  0.55683100  0.96649988  0.30707138  1.0
  Ni  Ni177  1  0.89016433  0.29983321  0.30707138  1.0
  Ni  Ni178  1  0.89016433  0.63316654  0.30707138  1.0
  Ni  Ni179  1  0.89016433  0.96649988  0.30707138  1.0
  Ni  Ni180  1  0.09780967  0.00235621  0.32243838  1.0
  Ni  Ni181  1  0.09780967  0.33568954  0.32243838  1.0
  Ni  Ni182  1  0.09780967  0.66902288  0.32243838  1.0
  Ni  Ni183  1  0.43114300  0.00235621  0.32243838  1.0
  Ni  Ni184  1  0.43114300  0.33568954  0.32243838  1.0
  Ni  Ni185  1  0.43114300  0.66902288  0.32243838  1.0
  Ni  Ni186  1  0.76447633  0.00235621  0.32243837  1.0
  Ni  Ni187  1  0.76447633  0.33568954  0.32243838  1.0
  Ni  Ni188  1  0.76447633  0.66902288  0.32243838  1.0
  Ni  Ni189  1  0.26447633  0.18985621  0.25993838  1.0
  Ni  Ni190  1  0.26447633  0.52318954  0.25993838  1.0
  Ni  Ni191  1  0.26447633  0.85652288  0.25993838  1.0
  Ni  Ni192  1  0.59780967  0.18985621  0.25993838  1.0
  Ni  Ni193  1  0.59780967  0.52318954  0.25993838  1.0
  Ni  Ni194  1  0.59780967  0.85652288  0.25993838  1.0
  Ni  Ni195  1  0.93114300  0.18985621  0.25993838  1.0
  Ni  Ni196  1  0.93114300  0.52318954  0.25993838  1.0
  Ni  Ni197  1  0.93114300  0.85652288  0.25993838  1.0
  Ni  Ni198  1  0.27650233  0.01266679  0.25542863  1.0
  Ni  Ni199  1  0.27650233  0.34600013  0.25542863  1.0
  Ni  Ni200  1  0.27650233  0.67933346  0.25542863  1.0
  Ni  Ni201  1  0.60983567  0.01266679  0.25542863  1.0
  Ni  Ni202  1  0.60983567  0.34600013  0.25542863  1.0
  Ni  Ni203  1  0.60983567  0.67933346  0.25542863  1.0
  Ni  Ni204  1  0.94316900  0.01266679  0.25542863  1.0
  Ni  Ni205  1  0.94316900  0.34600013  0.25542863  1.0
  Ni  Ni206  1  0.94316900  0.67933346  0.25542863  1.0
  Ni  Ni207  1  0.10983567  0.15850013  0.31792863  1.0
  Ni  Ni208  1  0.10983567  0.49183346  0.31792862  1.0
  Ni  Ni209  1  0.10983567  0.82516679  0.31792862  1.0
  Ni  Ni210  1  0.44316900  0.15850013  0.31792863  1.0
  Ni  Ni211  1  0.44316900  0.49183346  0.31792862  1.0
  Ni  Ni212  1  0.44316900  0.82516679  0.31792862  1.0
  Ni  Ni213  1  0.77650233  0.15850013  0.31792863  1.0
  Ni  Ni214  1  0.77650233  0.49183346  0.31792863  1.0
  Ni  Ni215  1  0.77650233  0.82516679  0.31792862  1.0
  Y  Y216  1  0.00795283  0.25661177  0.07426219  1.0
  Y  Y217  1  0.00795283  0.58994510  0.07426219  1.0
  Y  Y218  1  0.00795283  0.92327844  0.07426219  1.0
  Y  Y219  1  0.34128617  0.25661177  0.07426219  1.0
  Y  Y220  1  0.34128617  0.58994510  0.07426219  1.0
  Y  Y221  1  0.34128617  0.92327844  0.07426219  1.0
  Y  Y222  1  0.67461950  0.25661177  0.07426219  1.0
  Y  Y223  1  0.67461950  0.58994510  0.07426219  1.0
  Y  Y224  1  0.67461950  0.92327844  0.07426219  1.0
  Y  Y225  1  0.17461950  0.11077844  0.01176219  1.0
  Y  Y226  1  0.17461950  0.44411177  0.01176219  1.0
  Y  Y227  1  0.17461950  0.77744510  0.01176219  1.0
  Y  Y228  1  0.50795283  0.11077844  0.01176219  1.0
  Y  Y229  1  0.50795283  0.44411177  0.01176219  1.0
  Y  Y230  1  0.50795283  0.77744510  0.01176219  1.0
  Y  Y231  1  0.84128617  0.11077844  0.01176219  1.0
  Y  Y232  1  0.84128617  0.44411177  0.01176219  1.0
  Y  Y233  1  0.84128617  0.77744510  0.01176219  1.0
  Y  Y234  1  0.28136583  0.14237540  0.09673231  1.0
  Y  Y235  1  0.28136583  0.47570873  0.09673231  1.0
  Y  Y236  1  0.28136583  0.80904206  0.09673231  1.0
  Y  Y237  1  0.61469917  0.14237540  0.09673231  1.0
  Y  Y238  1  0.61469917  0.47570873  0.09673231  1.0
  Y  Y239  1  0.61469917  0.80904206  0.09673231  1.0
  Y  Y240  1  0.94803250  0.14237540  0.09673231  1.0
  Y  Y241  1  0.94803250  0.47570873  0.09673231  1.0
  Y  Y242  1  0.94803250  0.80904206  0.09673231  1.0
  Y  Y243  1  0.11469917  0.32987540  0.03423231  1.0
  Y  Y244  1  0.11469917  0.66320873  0.03423231  1.0
  Y  Y245  1  0.11469917  0.99654206  0.03423231  1.0
  Y  Y246  1  0.44803250  0.32987540  0.03423231  1.0
  Y  Y247  1  0.44803250  0.66320873  0.03423231  1.0
  Y  Y248  1  0.44803250  0.99654206  0.03423231  1.0
  Y  Y249  1  0.78136583  0.32987540  0.03423231  1.0
  Y  Y250  1  0.78136583  0.66320873  0.03423231  1.0
  Y  Y251  1  0.78136583  0.99654206  0.03423231  1.0
  Y  Y252  1  0.32538050  0.03505490  0.05073781  1.0
  Y  Y253  1  0.32538050  0.36838823  0.05073781  1.0
  Y  Y254  1  0.32538050  0.70172156  0.05073781  1.0
  Y  Y255  1  0.65871383  0.03505490  0.05073781  1.0
  Y  Y256  1  0.65871383  0.36838823  0.05073781  1.0
  Y  Y257  1  0.65871383  0.70172156  0.05073781  1.0
  Y  Y258  1  0.99204717  0.03505490  0.05073781  1.0
  Y  Y259  1  0.99204717  0.36838823  0.05073781  1.0
  Y  Y260  1  0.99204717  0.70172156  0.05073781  1.0
  Y  Y261  1  0.15871383  0.18088823  0.11323781  1.0
  Y  Y262  1  0.15871383  0.51422156  0.11323781  1.0
  Y  Y263  1  0.15871383  0.84755490  0.11323781  1.0
  Y  Y264  1  0.49204717  0.18088823  0.11323781  1.0
  Y  Y265  1  0.49204717  0.51422156  0.11323781  1.0
  Y  Y266  1  0.49204717  0.84755490  0.11323781  1.0
  Y  Y267  1  0.82538050  0.18088823  0.11323781  1.0
  Y  Y268  1  0.82538050  0.51422156  0.11323781  1.0
  Y  Y269  1  0.82538050  0.84755490  0.11323781  1.0
  Y  Y270  1  0.05196750  0.14929127  0.02826769  1.0
  Y  Y271  1  0.05196750  0.48262460  0.02826769  1.0
  Y  Y272  1  0.05196750  0.81595794  0.02826769  1.0
  Y  Y273  1  0.38530083  0.14929127  0.02826769  1.0
  Y  Y274  1  0.38530083  0.48262460  0.02826769  1.0
  Y  Y275  1  0.38530083  0.81595794  0.02826769  1.0
  Y  Y276  1  0.71863417  0.14929127  0.02826769  1.0
  Y  Y277  1  0.71863417  0.48262460  0.02826769  1.0
  Y  Y278  1  0.71863417  0.81595794  0.02826769  1.0
  Y  Y279  1  0.21863417  0.29512460  0.09076769  1.0
  Y  Y280  1  0.21863417  0.62845794  0.09076769  1.0
  Y  Y281  1  0.21863417  0.96179127  0.09076769  1.0
  Y  Y282  1  0.55196750  0.29512460  0.09076769  1.0
  Y  Y283  1  0.55196750  0.62845794  0.09076769  1.0
  Y  Y284  1  0.55196750  0.96179127  0.09076769  1.0
  Y  Y285  1  0.88530083  0.29512460  0.09076769  1.0
  Y  Y286  1  0.88530083  0.62845794  0.09076769  1.0
  Y  Y287  1  0.88530083  0.96179127  0.09076769  1.0
  Y  Y288  1  0.00795283  0.21494510  0.19926219  1.0
  Y  Y289  1  0.00795283  0.54827844  0.19926219  1.0
  Y  Y290  1  0.00795283  0.88161177  0.19926219  1.0
  Y  Y291  1  0.34128617  0.21494510  0.19926219  1.0
  Y  Y292  1  0.34128617  0.54827844  0.19926219  1.0
  Y  Y293  1  0.34128617  0.88161177  0.19926219  1.0
  Y  Y294  1  0.67461950  0.21494510  0.19926219  1.0
  Y  Y295  1  0.67461950  0.54827844  0.19926219  1.0
  Y  Y296  1  0.67461950  0.88161177  0.19926219  1.0
  Y  Y297  1  0.17461950  0.06911177  0.13676219  1.0
  Y  Y298  1  0.17461950  0.40244510  0.13676219  1.0
  Y  Y299  1  0.17461950  0.73577844  0.13676219  1.0
  Y  Y300  1  0.50795283  0.06911177  0.13676219  1.0
  Y  Y301  1  0.50795283  0.40244510  0.13676219  1.0
  Y  Y302  1  0.50795283  0.73577844  0.13676219  1.0
  Y  Y303  1  0.84128617  0.06911177  0.13676219  1.0
  Y  Y304  1  0.84128617  0.40244510  0.13676219  1.0
  Y  Y305  1  0.84128617  0.73577844  0.13676219  1.0
  Y  Y306  1  0.28136583  0.10070873  0.22173231  1.0
  Y  Y307  1  0.28136583  0.43404206  0.22173231  1.0
  Y  Y308  1  0.28136583  0.76737540  0.22173231  1.0
  Y  Y309  1  0.61469917  0.10070873  0.22173231  1.0
  Y  Y310  1  0.61469917  0.43404206  0.22173231  1.0
  Y  Y311  1  0.61469917  0.76737540  0.22173231  1.0
  Y  Y312  1  0.94803250  0.10070873  0.22173231  1.0
  Y  Y313  1  0.94803250  0.43404206  0.22173231  1.0
  Y  Y314  1  0.94803250  0.76737540  0.22173231  1.0
  Y  Y315  1  0.11469917  0.28820873  0.15923231  1.0
  Y  Y316  1  0.11469917  0.62154206  0.15923231  1.0
  Y  Y317  1  0.11469917  0.95487540  0.15923231  1.0
  Y  Y318  1  0.44803250  0.28820873  0.15923231  1.0
  Y  Y319  1  0.44803250  0.62154206  0.15923231  1.0
  Y  Y320  1  0.44803250  0.95487540  0.15923231  1.0
  Y  Y321  1  0.78136583  0.28820873  0.15923231  1.0
  Y  Y322  1  0.78136583  0.62154206  0.15923231  1.0
  Y  Y323  1  0.78136583  0.95487540  0.15923231  1.0
  Y  Y324  1  0.32538050  0.32672156  0.17573781  1.0
  Y  Y325  1  0.32538050  0.66005490  0.17573781  1.0
  Y  Y326  1  0.32538050  0.99338823  0.17573781  1.0
  Y  Y327  1  0.65871383  0.32672156  0.17573781  1.0
  Y  Y328  1  0.65871383  0.66005490  0.17573781  1.0
  Y  Y329  1  0.65871383  0.99338823  0.17573781  1.0
  Y  Y330  1  0.99204717  0.32672156  0.17573781  1.0
  Y  Y331  1  0.99204717  0.66005490  0.17573781  1.0
  Y  Y332  1  0.99204717  0.99338823  0.17573781  1.0
  Y  Y333  1  0.15871383  0.13922156  0.23823781  1.0
  Y  Y334  1  0.15871383  0.47255490  0.23823781  1.0
  Y  Y335  1  0.15871383  0.80588823  0.23823781  1.0
  Y  Y336  1  0.49204717  0.13922156  0.23823781  1.0
  Y  Y337  1  0.49204717  0.47255490  0.23823781  1.0
  Y  Y338  1  0.49204717  0.80588823  0.23823781  1.0
  Y  Y339  1  0.82538050  0.13922156  0.23823781  1.0
  Y  Y340  1  0.82538050  0.47255490  0.23823781  1.0
  Y  Y341  1  0.82538050  0.80588823  0.23823781  1.0
  Y  Y342  1  0.05196750  0.10762460  0.15326769  1.0
  Y  Y343  1  0.05196750  0.44095794  0.15326769  1.0
  Y  Y344  1  0.05196750  0.77429127  0.15326769  1.0
  Y  Y345  1  0.38530083  0.10762460  0.15326769  1.0
  Y  Y346  1  0.38530083  0.44095794  0.15326769  1.0
  Y  Y347  1  0.38530083  0.77429127  0.15326769  1.0
  Y  Y348  1  0.71863417  0.10762460  0.15326769  1.0
  Y  Y349  1  0.71863417  0.44095794  0.15326769  1.0
  Y  Y350  1  0.71863417  0.77429127  0.15326769  1.0
  Y  Y351  1  0.21863417  0.25345794  0.21576769  1.0
  Y  Y352  1  0.21863417  0.58679127  0.21576769  1.0
  Y  Y353  1  0.21863417  0.92012460  0.21576769  1.0
  Y  Y354  1  0.55196750  0.25345794  0.21576769  1.0
  Y  Y355  1  0.55196750  0.58679127  0.21576769  1.0
  Y  Y356  1  0.55196750  0.92012460  0.21576769  1.0
  Y  Y357  1  0.88530083  0.25345794  0.21576769  1.0
  Y  Y358  1  0.88530083  0.58679127  0.21576769  1.0
  Y  Y359  1  0.88530083  0.92012460  0.21576769  1.0
  Y  Y360  1  0.00795283  0.17327844  0.32426219  1.0
  Y  Y361  1  0.00795283  0.50661177  0.32426219  1.0
  Y  Y362  1  0.00795283  0.83994510  0.32426219  1.0
  Y  Y363  1  0.34128617  0.17327844  0.32426219  1.0
  Y  Y364  1  0.34128617  0.50661177  0.32426219  1.0
  Y  Y365  1  0.34128617  0.83994510  0.32426219  1.0
  Y  Y366  1  0.67461950  0.17327844  0.32426219  1.0
  Y  Y367  1  0.67461950  0.50661177  0.32426219  1.0
  Y  Y368  1  0.67461950  0.83994510  0.32426219  1.0
  Y  Y369  1  0.17461950  0.02744510  0.26176219  1.0
  Y  Y370  1  0.17461950  0.36077844  0.26176219  1.0
  Y  Y371  1  0.17461950  0.69411177  0.26176219  1.0
  Y  Y372  1  0.50795283  0.02744510  0.26176219  1.0
  Y  Y373  1  0.50795283  0.36077844  0.26176219  1.0
  Y  Y374  1  0.50795283  0.69411177  0.26176219  1.0
  Y  Y375  1  0.84128617  0.02744510  0.26176219  1.0
  Y  Y376  1  0.84128617  0.36077844  0.26176219  1.0
  Y  Y377  1  0.84128617  0.69411177  0.26176219  1.0
  Y  Y378  1  0.28136583  0.05904206  0.34673231  1.0
  Y  Y379  1  0.28136583  0.39237540  0.34673231  1.0
  Y  Y380  1  0.28136583  0.72570873  0.34673231  1.0
  Y  Y381  1  0.61469917  0.05904206  0.34673231  1.0
  Y  Y382  1  0.61469917  0.39237540  0.34673231  1.0
  Y  Y383  1  0.61469917  0.72570873  0.34673231  1.0
  Y  Y384  1  0.94803250  0.05904206  0.34673231  1.0
  Y  Y385  1  0.94803250  0.39237540  0.34673231  1.0
  Y  Y386  1  0.94803250  0.72570873  0.34673231  1.0
  Y  Y387  1  0.11469917  0.24654206  0.28423231  1.0
  Y  Y388  1  0.11469917  0.57987540  0.28423231  1.0
  Y  Y389  1  0.11469917  0.91320873  0.28423231  1.0
  Y  Y390  1  0.44803250  0.24654206  0.28423231  1.0
  Y  Y391  1  0.44803250  0.57987540  0.28423231  1.0
  Y  Y392  1  0.44803250  0.91320873  0.28423231  1.0
  Y  Y393  1  0.78136583  0.24654206  0.28423231  1.0
  Y  Y394  1  0.78136583  0.57987540  0.28423231  1.0
  Y  Y395  1  0.78136583  0.91320873  0.28423231  1.0
  Y  Y396  1  0.32538050  0.28505490  0.30073781  1.0
  Y  Y397  1  0.32538050  0.61838823  0.30073781  1.0
  Y  Y398  1  0.32538050  0.95172156  0.30073781  1.0
  Y  Y399  1  0.65871383  0.28505490  0.30073781  1.0
  Y  Y400  1  0.65871383  0.61838823  0.30073781  1.0
  Y  Y401  1  0.65871383  0.95172156  0.30073781  1.0
  Y  Y402  1  0.99204717  0.28505490  0.30073781  1.0
  Y  Y403  1  0.99204717  0.61838823  0.30073781  1.0
  Y  Y404  1  0.99204717  0.95172156  0.30073781  1.0
  Y  Y405  1  0.15871383  0.09755490  0.36323781  1.0
  Y  Y406  1  0.15871383  0.43088823  0.36323781  1.0
  Y  Y407  1  0.15871383  0.76422156  0.36323781  1.0
  Y  Y408  1  0.49204717  0.09755490  0.36323781  1.0
  Y  Y409  1  0.49204717  0.43088823  0.36323781  1.0
  Y  Y410  1  0.49204717  0.76422156  0.36323781  1.0
  Y  Y411  1  0.82538050  0.09755490  0.36323781  1.0
  Y  Y412  1  0.82538050  0.43088823  0.36323781  1.0
  Y  Y413  1  0.82538050  0.76422156  0.36323781  1.0
  Y  Y414  1  0.05196750  0.06595794  0.27826769  1.0
  Y  Y415  1  0.05196750  0.39929127  0.27826769  1.0
  Y  Y416  1  0.05196750  0.73262460  0.27826769  1.0
  Y  Y417  1  0.38530083  0.06595794  0.27826769  1.0
  Y  Y418  1  0.38530083  0.39929127  0.27826769  1.0
  Y  Y419  1  0.38530083  0.73262460  0.27826769  1.0
  Y  Y420  1  0.71863417  0.06595794  0.27826769  1.0
  Y  Y421  1  0.71863417  0.39929127  0.27826769  1.0
  Y  Y422  1  0.71863417  0.73262460  0.27826769  1.0
  Y  Y423  1  0.21863417  0.21179127  0.34076769  1.0
  Y  Y424  1  0.21863417  0.54512460  0.34076769  1.0
  Y  Y425  1  0.21863417  0.87845794  0.34076769  1.0
  Y  Y426  1  0.55196750  0.21179127  0.34076769  1.0
  Y  Y427  1  0.55196750  0.54512460  0.34076769  1.0
  Y  Y428  1  0.55196750  0.87845794  0.34076769  1.0
  Y  Y429  1  0.88530083  0.21179127  0.34076769  1.0
  Y  Y430  1  0.88530083  0.54512460  0.34076769  1.0
  Y  Y431  1  0.88530083  0.87845794  0.34076769  1.0
