# generated using pymatgen
data_YNi
_symmetry_space_group_name_H-M   'P 1'
_cell_length_a   16.44429300
_cell_length_b   32.77105345
_cell_length_c   35.72749000
_cell_angle_alpha   49.14636652
_cell_angle_beta   90.00000000
_cell_angle_gamma   90.00000000
_symmetry_Int_Tables_number   1
_chemical_formula_structural   YNi
_chemical_formula_sum   'Y144 Ni144'
_cell_volume   14562.96863830
_cell_formula_units_Z   144
loop_
 _symmetry_equiv_pos_site_id
 _symmetry_equiv_pos_as_xyz
  1  'x, y, z'
loop_
 _atom_site_type_symbol
 _atom_site_label
 _atom_site_symmetry_multiplicity
 _atom_site_fract_x
 _atom_site_fract_y
 _atom_site_fract_z
 _atom_site_occupancy
  Y  Y0  1  0.28931867  0.04166667  0.13904780  1.0
  Y  Y1  1  0.28931867  0.37500000  0.13904780  1.0
  Y  Y2  1  0.28931867  0.70833333  0.13904780  1.0
  Y  Y3  1  0.62265200  0.04166667  0.13904780  1.0
  Y  Y4  1  0.62265200  0.37500000  0.13904780  1.0
  Y  Y5  1  0.62265200  0.70833333  0.13904780  1.0
  Y  Y6  1  0.95598533  0.04166667  0.13904780  1.0
  Y  Y7  1  0.95598533  0.37500000  0.13904780  1.0
  Y  Y8  1  0.95598533  0.70833333  0.13904780  1.0
  Y  Y9  1  0.28931867  0.20833333  0.03904780  1.0
  Y  Y10  1  0.28931867  0.54166667  0.03904780  1.0
  Y  Y11  1  0.28931867  0.87500000  0.03904780  1.0
  Y  Y12  1  0.62265200  0.20833333  0.03904780  1.0
  Y  Y13  1  0.62265200  0.54166667  0.03904780  1.0
  Y  Y14  1  0.62265200  0.87500000  0.03904780  1.0
  Y  Y15  1  0.95598533  0.20833333  0.03904780  1.0
  Y  Y16  1  0.95598533  0.54166667  0.03904780  1.0
  Y  Y17  1  0.95598533  0.87500000  0.03904780  1.0
  Y  Y18  1  0.12265200  0.12500000  0.06095220  1.0
  Y  Y19  1  0.12265200  0.45833333  0.06095220  1.0
  Y  Y20  1  0.12265200  0.79166667  0.06095220  1.0
  Y  Y21  1  0.45598533  0.12500000  0.06095220  1.0
  Y  Y22  1  0.45598533  0.45833333  0.06095220  1.0
  Y  Y23  1  0.45598533  0.79166667  0.06095220  1.0
  Y  Y24  1  0.78931867  0.12500000  0.06095220  1.0
  Y  Y25  1  0.78931867  0.45833333  0.06095220  1.0
  Y  Y26  1  0.78931867  0.79166667  0.06095220  1.0
  Y  Y27  1  0.12265200  0.29166667  0.16095220  1.0
  Y  Y28  1  0.12265200  0.62500000  0.16095220  1.0
  Y  Y29  1  0.12265200  0.95833333  0.16095220  1.0
  Y  Y30  1  0.45598533  0.29166667  0.16095220  1.0
  Y  Y31  1  0.45598533  0.62500000  0.16095220  1.0
  Y  Y32  1  0.45598533  0.95833333  0.16095220  1.0
  Y  Y33  1  0.78931867  0.29166667  0.16095220  1.0
  Y  Y34  1  0.78931867  0.62500000  0.16095220  1.0
  Y  Y35  1  0.78931867  0.95833333  0.16095220  1.0
  Y  Y36  1  0.04401467  0.12500000  0.16095220  1.0
  Y  Y37  1  0.04401467  0.45833333  0.16095220  1.0
  Y  Y38  1  0.04401467  0.79166667  0.16095220  1.0
  Y  Y39  1  0.37734800  0.12500000  0.16095220  1.0
  Y  Y40  1  0.37734800  0.45833333  0.16095220  1.0
  Y  Y41  1  0.37734800  0.79166667  0.16095220  1.0
  Y  Y42  1  0.71068133  0.12500000  0.16095220  1.0
  Y  Y43  1  0.71068133  0.45833333  0.16095220  1.0
  Y  Y44  1  0.71068133  0.79166667  0.16095220  1.0
  Y  Y45  1  0.04401467  0.29166667  0.06095220  1.0
  Y  Y46  1  0.04401467  0.62500000  0.06095220  1.0
  Y  Y47  1  0.04401467  0.95833333  0.06095220  1.0
  Y  Y48  1  0.37734800  0.29166667  0.06095220  1.0
  Y  Y49  1  0.37734800  0.62500000  0.06095220  1.0
  Y  Y50  1  0.37734800  0.95833333  0.06095220  1.0
  Y  Y51  1  0.71068133  0.29166667  0.06095220  1.0
  Y  Y52  1  0.71068133  0.62500000  0.06095220  1.0
  Y  Y53  1  0.71068133  0.95833333  0.06095220  1.0
  Y  Y54  1  0.21068133  0.04166667  0.03904780  1.0
  Y  Y55  1  0.21068133  0.37500000  0.03904780  1.0
  Y  Y56  1  0.21068133  0.70833333  0.03904780  1.0
  Y  Y57  1  0.54401467  0.04166667  0.03904780  1.0
  Y  Y58  1  0.54401467  0.37500000  0.03904780  1.0
  Y  Y59  1  0.54401467  0.70833333  0.03904780  1.0
  Y  Y60  1  0.87734800  0.04166667  0.03904780  1.0
  Y  Y61  1  0.87734800  0.37500000  0.03904780  1.0
  Y  Y62  1  0.87734800  0.70833333  0.03904780  1.0
  Y  Y63  1  0.21068133  0.20833333  0.13904780  1.0
  Y  Y64  1  0.21068133  0.54166667  0.13904780  1.0
  Y  Y65  1  0.21068133  0.87500000  0.13904780  1.0
  Y  Y66  1  0.54401467  0.20833333  0.13904780  1.0
  Y  Y67  1  0.54401467  0.54166667  0.13904780  1.0
  Y  Y68  1  0.54401467  0.87500000  0.13904780  1.0
  Y  Y69  1  0.87734800  0.20833333  0.13904780  1.0
  Y  Y70  1  0.87734800  0.54166667  0.13904780  1.0
  Y  Y71  1  0.87734800  0.87500000  0.13904780  1.0
  Ni  Ni72  1  0.12568800  0.04166667  0.16778440  1.0
  Ni  Ni73  1  0.12568800  0.37500000  0.16778440  1.0
  Ni  Ni74  1  0.12568800  0.70833333  0.16778440  1.0
  Ni  Ni75  1  0.45902133  0.04166667  0.16778440  1.0
  Ni  Ni76  1  0.45902133  0.37500000  0.16778440  1.0
  Ni  Ni77  1  0.45902133  0.70833333  0.16778440  1.0
  Ni  Ni78  1  0.79235467  0.04166667  0.16778440  1.0
  Ni  Ni79  1  0.79235467  0.37500000  0.16778440  1.0
  Ni  Ni80  1  0.79235467  0.70833333  0.16778440  1.0
  Ni  Ni81  1  0.12568800  0.20833333  0.06778440  1.0
  Ni  Ni82  1  0.12568800  0.54166667  0.06778440  1.0
  Ni  Ni83  1  0.12568800  0.87500000  0.06778440  1.0
  Ni  Ni84  1  0.45902133  0.20833333  0.06778440  1.0
  Ni  Ni85  1  0.45902133  0.54166667  0.06778440  1.0
  Ni  Ni86  1  0.45902133  0.87500000  0.06778440  1.0
  Ni  Ni87  1  0.79235467  0.20833333  0.06778440  1.0
  Ni  Ni88  1  0.79235467  0.54166667  0.06778440  1.0
  Ni  Ni89  1  0.79235467  0.87500000  0.06778440  1.0
  Ni  Ni90  1  0.29235467  0.12500000  0.03221560  1.0
  Ni  Ni91  1  0.29235467  0.45833333  0.03221560  1.0
  Ni  Ni92  1  0.29235467  0.79166667  0.03221560  1.0
  Ni  Ni93  1  0.62568800  0.12500000  0.03221560  1.0
  Ni  Ni94  1  0.62568800  0.45833333  0.03221560  1.0
  Ni  Ni95  1  0.62568800  0.79166667  0.03221560  1.0
  Ni  Ni96  1  0.95902133  0.12500000  0.03221560  1.0
  Ni  Ni97  1  0.95902133  0.45833333  0.03221560  1.0
  Ni  Ni98  1  0.95902133  0.79166667  0.03221560  1.0
  Ni  Ni99  1  0.29235467  0.29166667  0.13221560  1.0
  Ni  Ni100  1  0.29235467  0.62500000  0.13221560  1.0
  Ni  Ni101  1  0.29235467  0.95833333  0.13221560  1.0
  Ni  Ni102  1  0.62568800  0.29166667  0.13221560  1.0
  Ni  Ni103  1  0.62568800  0.62500000  0.13221560  1.0
  Ni  Ni104  1  0.62568800  0.95833333  0.13221560  1.0
  Ni  Ni105  1  0.95902133  0.29166667  0.13221560  1.0
  Ni  Ni106  1  0.95902133  0.62500000  0.13221560  1.0
  Ni  Ni107  1  0.95902133  0.95833333  0.13221560  1.0
  Ni  Ni108  1  0.20764533  0.12500000  0.13221560  1.0
  Ni  Ni109  1  0.20764533  0.45833333  0.13221560  1.0
  Ni  Ni110  1  0.20764533  0.79166667  0.13221560  1.0
  Ni  Ni111  1  0.54097867  0.12500000  0.13221560  1.0
  Ni  Ni112  1  0.54097867  0.45833333  0.13221560  1.0
  Ni  Ni113  1  0.54097867  0.79166667  0.13221560  1.0
  Ni  Ni114  1  0.87431200  0.12500000  0.13221560  1.0
  Ni  Ni115  1  0.87431200  0.45833333  0.13221560  1.0
  Ni  Ni116  1  0.87431200  0.79166667  0.13221560  1.0
  Ni  Ni117  1  0.20764533  0.29166667  0.03221560  1.0
  Ni  Ni118  1  0.20764533  0.62500000  0.03221560  1.0
  Ni  Ni119  1  0.20764533  0.95833333  0.03221560  1.0
  Ni  Ni120  1  0.54097867  0.29166667  0.03221560  1.0
  Ni  Ni121  1  0.54097867  0.62500000  0.03221560  1.0
  Ni  Ni122  1  0.54097867  0.95833333  0.03221560  1.0
  Ni  Ni123  1  0.87431200  0.29166667  0.03221560  1.0
  Ni  Ni124  1  0.87431200  0.62500000  0.03221560  1.0
  Ni  Ni125  1  0.87431200  0.95833333  0.03221560  1.0
  Ni  Ni126  1  0.04097867  0.04166667  0.06778440  1.0
  Ni  Ni127  1  0.04097867  0.37500000  0.06778440  1.0
  Ni  Ni128  1  0.04097867  0.70833333  0.06778440  1.0
  Ni  Ni129  1  0.37431200  0.04166667  0.06778440  1.0
  Ni  Ni130  1  0.37431200  0.37500000  0.06778440  1.0
  Ni  Ni131  1  0.37431200  0.70833333  0.06778440  1.0
  Ni  Ni132  1  0.70764533  0.04166667  0.06778440  1.0
  Ni  Ni133  1  0.70764533  0.37500000  0.06778440  1.0
  Ni  Ni134  1  0.70764533  0.70833333  0.06778440  1.0
  Ni  Ni135  1  0.04097867  0.20833333  0.16778440  1.0
  Ni  Ni136  1  0.04097867  0.54166667  0.16778440  1.0
  Ni  Ni137  1  0.04097867  0.87500000  0.16778440  1.0
  Ni  Ni138  1  0.37431200  0.20833333  0.16778440  1.0
  Ni  Ni139  1  0.37431200  0.54166667  0.16778440  1.0
  Ni  Ni140  1  0.37431200  0.87500000  0.16778440  1.0
  Ni  Ni141  1  0.70764533  0.20833333  0.16778440  1.0
  Ni  Ni142  1  0.70764533  0.54166667  0.16778440  1.0
  Ni  Ni143  1  0.70764533  0.87500000  0.16778440  1.0
  Y  Y144  1  0.28931867  0.04166667  0.33904780  1.0
  Y  Y145  1  0.28931867  0.37500000  0.33904780  1.0
  Y  Y146  1  0.28931867  0.70833333  0.33904780  1.0
  Y  Y147  1  0.62265200  0.04166667  0.33904780  1.0
  Y  Y148  1  0.62265200  0.37500000  0.33904780  1.0
  Y  Y149  1  0.62265200  0.70833333  0.33904780  1.0
  Y  Y150  1  0.95598533  0.04166667  0.33904780  1.0
  Y  Y151  1  0.95598533  0.37500000  0.33904780  1.0
  Y  Y152  1  0.95598533  0.70833333  0.33904780  1.0
  Y  Y153  1  0.28931867  0.20833333  0.23904780  1.0
  Y  Y154  1  0.28931867  0.54166667  0.23904780  1.0
  Y  Y155  1  0.28931867  0.87500000  0.23904780  1.0
  Y  Y156  1  0.62265200  0.20833333  0.23904780  1.0
  Y  Y157  1  0.62265200  0.54166667  0.23904780  1.0
  Y  Y158  1  0.62265200  0.87500000  0.23904780  1.0
  Y  Y159  1  0.95598533  0.20833333  0.23904780  1.0
  Y  Y160  1  0.95598533  0.54166667  0.23904780  1.0
  Y  Y161  1  0.95598533  0.87500000  0.23904780  1.0
  Y  Y162  1  0.12265200  0.12500000  0.26095220  1.0
  Y  Y163  1  0.12265200  0.45833333  0.26095220  1.0
  Y  Y164  1  0.12265200  0.79166667  0.26095220  1.0
  Y  Y165  1  0.45598533  0.12500000  0.26095220  1.0
  Y  Y166  1  0.45598533  0.45833333  0.26095220  1.0
  Y  Y167  1  0.45598533  0.79166667  0.26095220  1.0
  Y  Y168  1  0.78931867  0.12500000  0.26095220  1.0
  Y  Y169  1  0.78931867  0.45833333  0.26095220  1.0
  Y  Y170  1  0.78931867  0.79166667  0.26095220  1.0
  Y  Y171  1  0.12265200  0.29166667  0.36095220  1.0
  Y  Y172  1  0.12265200  0.62500000  0.36095220  1.0
  Y  Y173  1  0.12265200  0.95833333  0.36095220  1.0
  Y  Y174  1  0.45598533  0.29166667  0.36095220  1.0
  Y  Y175  1  0.45598533  0.62500000  0.36095220  1.0
  Y  Y176  1  0.45598533  0.95833333  0.36095220  1.0
  Y  Y177  1  0.78931867  0.29166667  0.36095220  1.0
  Y  Y178  1  0.78931867  0.62500000  0.36095220  1.0
  Y  Y179  1  0.78931867  0.95833333  0.36095220  1.0
  Y  Y180  1  0.04401467  0.12500000  0.36095220  1.0
  Y  Y181  1  0.04401467  0.45833333  0.36095220  1.0
  Y  Y182  1  0.04401467  0.79166667  0.36095220  1.0
  Y  Y183  1  0.37734800  0.12500000  0.36095220  1.0
  Y  Y184  1  0.37734800  0.45833333  0.36095220  1.0
  Y  Y185  1  0.37734800  0.79166667  0.36095220  1.0
  Y  Y186  1  0.71068133  0.12500000  0.36095220  1.0
  Y  Y187  1  0.71068133  0.45833333  0.36095220  1.0
  Y  Y188  1  0.71068133  0.79166667  0.36095220  1.0
  Y  Y189  1  0.04401467  0.29166667  0.26095220  1.0
  Y  Y190  1  0.04401467  0.62500000  0.26095220  1.0
  Y  Y191  1  0.04401467  0.95833333  0.26095220  1.0
  Y  Y192  1  0.37734800  0.29166667  0.26095220  1.0
  Y  Y193  1  0.37734800  0.62500000  0.26095220  1.0
  Y  Y194  1  0.37734800  0.95833333  0.26095220  1.0
  Y  Y195  1  0.71068133  0.29166667  0.26095220  1.0
  Y  Y196  1  0.71068133  0.62500000  0.26095220  1.0
  Y  Y197  1  0.71068133  0.95833333  0.26095220  1.0
  Y  Y198  1  0.21068133  0.04166667  0.23904780  1.0
  Y  Y199  1  0.21068133  0.37500000  0.23904780  1.0
  Y  Y200  1  0.21068133  0.70833333  0.23904780  1.0
  Y  Y201  1  0.54401467  0.04166667  0.23904780  1.0
  Y  Y202  1  0.54401467  0.37500000  0.23904780  1.0
  Y  Y203  1  0.54401467  0.70833333  0.23904780  1.0
  Y  Y204  1  0.87734800  0.04166667  0.23904780  1.0
  Y  Y205  1  0.87734800  0.37500000  0.23904780  1.0
  Y  Y206  1  0.87734800  0.70833333  0.23904780  1.0
  Y  Y207  1  0.21068133  0.20833333  0.33904780  1.0
  Y  Y208  1  0.21068133  0.54166667  0.33904780  1.0
  Y  Y209  1  0.21068133  0.87500000  0.33904780  1.0
  Y  Y210  1  0.54401467  0.20833333  0.33904780  1.0
  Y  Y211  1  0.54401467  0.54166667  0.33904780  1.0
  Y  Y212  1  0.54401467  0.87500000  0.33904780  1.0
  Y  Y213  1  0.87734800  0.20833333  0.33904780  1.0
  Y  Y214  1  0.87734800  0.54166667  0.33904780  1.0
  Y  Y215  1  0.87734800  0.87500000  0.33904780  1.0
  Ni  Ni216  1  0.12568800  0.04166667  0.36778440  1.0
  Ni  Ni217  1  0.12568800  0.37500000  0.36778440  1.0
  Ni  Ni218  1  0.12568800  0.70833333  0.36778440  1.0
  Ni  Ni219  1  0.45902133  0.04166667  0.36778440  1.0
  Ni  Ni220  1  0.45902133  0.37500000  0.36778440  1.0
  Ni  Ni221  1  0.45902133  0.70833333  0.36778440  1.0
  Ni  Ni222  1  0.79235467  0.04166667  0.36778440  1.0
  Ni  Ni223  1  0.79235467  0.37500000  0.36778440  1.0
  Ni  Ni224  1  0.79235467  0.70833333  0.36778440  1.0
  Ni  Ni225  1  0.12568800  0.20833333  0.26778440  1.0
  Ni  Ni226  1  0.12568800  0.54166667  0.26778440  1.0
  Ni  Ni227  1  0.12568800  0.87500000  0.26778440  1.0
  Ni  Ni228  1  0.45902133  0.20833333  0.26778440  1.0
  Ni  Ni229  1  0.45902133  0.54166667  0.26778440  1.0
  Ni  Ni230  1  0.45902133  0.87500000  0.26778440  1.0
  Ni  Ni231  1  0.79235467  0.20833333  0.26778440  1.0
  Ni  Ni232  1  0.79235467  0.54166667  0.26778440  1.0
  Ni  Ni233  1  0.79235467  0.87500000  0.26778440  1.0
  Ni  Ni234  1  0.29235467  0.12500000  0.23221560  1.0
  Ni  Ni235  1  0.29235467  0.45833333  0.23221560  1.0
  Ni  Ni236  1  0.29235467  0.79166667  0.23221560  1.0
  Ni  Ni237  1  0.62568800  0.12500000  0.23221560  1.0
  Ni  Ni238  1  0.62568800  0.45833333  0.23221560  1.0
  Ni  Ni239  1  0.62568800  0.79166667  0.23221560  1.0
  Ni  Ni240  1  0.95902133  0.12500000  0.23221560  1.0
  Ni  Ni241  1  0.95902133  0.45833333  0.23221560  1.0
  Ni  Ni242  1  0.95902133  0.79166667  0.23221560  1.0
  Ni  Ni243  1  0.29235467  0.29166667  0.33221560  1.0
  Ni  Ni244  1  0.29235467  0.62500000  0.33221560  1.0
  Ni  Ni245  1  0.29235467  0.95833333  0.33221560  1.0
  Ni  Ni246  1  0.62568800  0.29166667  0.33221560  1.0
  Ni  Ni247  1  0.62568800  0.62500000  0.33221560  1.0
  Ni  Ni248  1  0.62568800  0.95833333  0.33221560  1.0
  Ni  Ni249  1  0.95902133  0.29166667  0.33221560  1.0
  Ni  Ni250  1  0.95902133  0.62500000  0.33221560  1.0
  Ni  Ni251  1  0.95902133  0.95833333  0.33221560  1.0
  Ni  Ni252  1  0.20764533  0.12500000  0.33221560  1.0
  Ni  Ni253  1  0.20764533  0.45833333  0.33221560  1.0
  Ni  Ni254  1  0.20764533  0.79166667  0.33221560  1.0
  Ni  Ni255  1  0.54097867  0.12500000  0.33221560  1.0
  Ni  Ni256  1  0.54097867  0.45833333  0.33221560  1.0
  Ni  Ni257  1  0.54097867  0.79166667  0.33221560  1.0
  Ni  Ni258  1  0.87431200  0.12500000  0.33221560  1.0
  Ni  Ni259  1  0.87431200  0.45833333  0.33221560  1.0
  Ni  Ni260  1  0.87431200  0.79166667  0.33221560  1.0
  Ni  Ni261  1  0.20764533  0.29166667  0.23221560  1.0
  Ni  Ni262  1  0.20764533  0.62500000  0.23221560  1.0
  Ni  Ni263  1  0.20764533  0.95833333  0.23221560  1.0
  Ni  Ni264  1  0.54097867  0.29166667  0.23221560  1.0
  Ni  Ni265  1  0.54097867  0.62500000  0.23221560  1.0
  Ni  Ni266  1  0.54097867  0.95833333  0.23221560  1.0
  Ni  Ni267  1  0.87431200  0.29166667  0.23221560  1.0
  Ni  Ni268  1  0.87431200  0.62500000  0.23221560  1.0
  Ni  Ni269  1  0.87431200  0.95833333  0.23221560  1.0
  Ni  Ni270  1  0.04097867  0.04166667  0.26778440  1.0
  Ni  Ni271  1  0.04097867  0.37500000  0.26778440  1.0
  Ni  Ni272  1  0.04097867  0.70833333  0.26778440  1.0
  Ni  Ni273  1  0.37431200  0.04166667  0.26778440  1.0
  Ni  Ni274  1  0.37431200  0.37500000  0.26778440  1.0
  Ni  Ni275  1  0.37431200  0.70833333  0.26778440  1.0
  Ni  Ni276  1  0.70764533  0.04166667  0.26778440  1.0
  Ni  Ni277  1  0.70764533  0.37500000  0.26778440  1.0
  Ni  Ni278  1  0.70764533  0.70833333  0.26778440  1.0
  Ni  Ni279  1  0.04097867  0.20833333  0.36778440  1.0
  Ni  Ni280  1  0.04097867  0.54166667  0.36778440  1.0
  Ni  Ni281  1  0.04097867  0.87500000  0.36778440  1.0
  Ni  Ni282  1  0.37431200  0.20833333  0.36778440  1.0
  Ni  Ni283  1  0.37431200  0.54166667  0.36778440  1.0
  Ni  Ni284  1  0.37431200  0.87500000  0.36778440  1.0
  Ni  Ni285  1  0.70764533  0.20833333  0.36778440  1.0
  Ni  Ni286  1  0.70764533  0.54166667  0.36778440  1.0
  Ni  Ni287  1  0.70764533  0.87500000  0.36778440  1.0
