# generated using pymatgen
data_YNi
_symmetry_space_group_name_H-M   'P 1'
_cell_length_a   20.59173231
_cell_length_b   32.77105345
_cell_length_c   50.01848600
_cell_angle_alpha   49.14636652
_cell_angle_beta   90.00000000
_cell_angle_gamma   62.91890046
_symmetry_Int_Tables_number   1
_chemical_formula_structural   YNi
_chemical_formula_sum   'Y216 Ni216'
_cell_volume   20388.15609362
_cell_formula_units_Z   216
loop_
 _symmetry_equiv_pos_site_id
 _symmetry_equiv_pos_as_xyz
  1  'x, y, z'
loop_
 _atom_site_type_symbol
 _atom_site_label
 _atom_site_symmetry_multiplicity
 _atom_site_fract_x
 _atom_site_fract_y
 _atom_site_fract_z
 _atom_site_occupancy
  Y  Y0  1  0.28931867  0.23034067  0.01845957  1.0
  Y  Y1  1  0.28931867  0.56367400  0.01845957  1.0
  Y  Y2  1  0.28931867  0.89700733  0.01845957  1.0
  Y  Y3  1  0.62265200  0.23034067  0.01845957  1.0
  Y  Y4  1  0.62265200  0.56367400  0.01845957  1.0
  Y  Y5  1  0.62265200  0.89700733  0.01845957  1.0
  Y  Y6  1  0.95598533  0.23034067  0.01845957  1.0
  Y  Y7  1  0.95598533  0.56367400  0.01845957  1.0
  Y  Y8  1  0.95598533  0.89700733  0.01845957  1.0
  Y  Y9  1  0.28931867  0.06367400  0.08988814  1.0
  Y  Y10  1  0.28931867  0.39700733  0.08988814  1.0
  Y  Y11  1  0.28931867  0.73034067  0.08988814  1.0
  Y  Y12  1  0.62265200  0.06367400  0.08988814  1.0
  Y  Y13  1  0.62265200  0.39700733  0.08988814  1.0
  Y  Y14  1  0.62265200  0.73034067  0.08988814  1.0
  Y  Y15  1  0.95598533  0.06367400  0.08988814  1.0
  Y  Y16  1  0.95598533  0.39700733  0.08988814  1.0
  Y  Y17  1  0.95598533  0.73034067  0.08988814  1.0
  Y  Y18  1  0.12265200  0.06367400  0.06981986  1.0
  Y  Y19  1  0.12265200  0.39700733  0.06981986  1.0
  Y  Y20  1  0.12265200  0.73034067  0.06981986  1.0
  Y  Y21  1  0.45598533  0.06367400  0.06981986  1.0
  Y  Y22  1  0.45598533  0.39700733  0.06981986  1.0
  Y  Y23  1  0.45598533  0.73034067  0.06981986  1.0
  Y  Y24  1  0.78931867  0.06367400  0.06981986  1.0
  Y  Y25  1  0.78931867  0.39700733  0.06981986  1.0
  Y  Y26  1  0.78931867  0.73034067  0.06981986  1.0
  Y  Y27  1  0.12265200  0.23034067  0.14124843  1.0
  Y  Y28  1  0.12265200  0.56367400  0.14124843  1.0
  Y  Y29  1  0.12265200  0.89700733  0.14124843  1.0
  Y  Y30  1  0.45598533  0.23034067  0.14124843  1.0
  Y  Y31  1  0.45598533  0.56367400  0.14124843  1.0
  Y  Y32  1  0.45598533  0.89700733  0.14124843  1.0
  Y  Y33  1  0.78931867  0.23034067  0.14124843  1.0
  Y  Y34  1  0.78931867  0.56367400  0.14124843  1.0
  Y  Y35  1  0.78931867  0.89700733  0.14124843  1.0
  Y  Y36  1  0.04401467  0.10299267  0.12439757  1.0
  Y  Y37  1  0.04401467  0.43632600  0.12439757  1.0
  Y  Y38  1  0.04401467  0.76965933  0.12439757  1.0
  Y  Y39  1  0.37734800  0.10299267  0.12439757  1.0
  Y  Y40  1  0.37734800  0.43632600  0.12439757  1.0
  Y  Y41  1  0.37734800  0.76965933  0.12439757  1.0
  Y  Y42  1  0.71068133  0.10299267  0.12439757  1.0
  Y  Y43  1  0.71068133  0.43632600  0.12439757  1.0
  Y  Y44  1  0.71068133  0.76965933  0.12439757  1.0
  Y  Y45  1  0.04401467  0.26965933  0.05296900  1.0
  Y  Y46  1  0.04401467  0.60299267  0.05296900  1.0
  Y  Y47  1  0.04401467  0.93632600  0.05296900  1.0
  Y  Y48  1  0.37734800  0.26965933  0.05296900  1.0
  Y  Y49  1  0.37734800  0.60299267  0.05296900  1.0
  Y  Y50  1  0.37734800  0.93632600  0.05296900  1.0
  Y  Y51  1  0.71068133  0.26965933  0.05296900  1.0
  Y  Y52  1  0.71068133  0.60299267  0.05296900  1.0
  Y  Y53  1  0.71068133  0.93632600  0.05296900  1.0
  Y  Y54  1  0.21068133  0.26965933  0.07303729  1.0
  Y  Y55  1  0.21068133  0.60299267  0.07303729  1.0
  Y  Y56  1  0.21068133  0.93632600  0.07303729  1.0
  Y  Y57  1  0.54401467  0.26965933  0.07303729  1.0
  Y  Y58  1  0.54401467  0.60299267  0.07303729  1.0
  Y  Y59  1  0.54401467  0.93632600  0.07303729  1.0
  Y  Y60  1  0.87734800  0.26965933  0.07303729  1.0
  Y  Y61  1  0.87734800  0.60299267  0.07303729  1.0
  Y  Y62  1  0.87734800  0.93632600  0.07303729  1.0
  Y  Y63  1  0.21068133  0.10299267  0.00160871  1.0
  Y  Y64  1  0.21068133  0.43632600  0.00160871  1.0
  Y  Y65  1  0.21068133  0.76965933  0.00160871  1.0
  Y  Y66  1  0.54401467  0.10299267  0.00160871  1.0
  Y  Y67  1  0.54401467  0.43632600  0.00160871  1.0
  Y  Y68  1  0.54401467  0.76965933  0.00160871  1.0
  Y  Y69  1  0.87734800  0.10299267  0.00160871  1.0
  Y  Y70  1  0.87734800  0.43632600  0.00160871  1.0
  Y  Y71  1  0.87734800  0.76965933  0.00160871  1.0
  Ni  Ni72  1  0.12568800  0.31215600  0.00392200  1.0
  Ni  Ni73  1  0.12568800  0.64548933  0.00392200  1.0
  Ni  Ni74  1  0.12568800  0.97882267  0.00392200  1.0
  Ni  Ni75  1  0.45902133  0.31215600  0.00392200  1.0
  Ni  Ni76  1  0.45902133  0.64548933  0.00392200  1.0
  Ni  Ni77  1  0.45902133  0.97882267  0.00392200  1.0
  Ni  Ni78  1  0.79235467  0.31215600  0.00392200  1.0
  Ni  Ni79  1  0.79235467  0.64548933  0.00392200  1.0
  Ni  Ni80  1  0.79235467  0.97882267  0.00392200  1.0
  Ni  Ni81  1  0.12568800  0.14548933  0.07535057  1.0
  Ni  Ni82  1  0.12568800  0.47882267  0.07535057  1.0
  Ni  Ni83  1  0.12568800  0.81215600  0.07535057  1.0
  Ni  Ni84  1  0.45902133  0.14548933  0.07535057  1.0
  Ni  Ni85  1  0.45902133  0.47882267  0.07535057  1.0
  Ni  Ni86  1  0.45902133  0.81215600  0.07535057  1.0
  Ni  Ni87  1  0.79235467  0.14548933  0.07535057  1.0
  Ni  Ni88  1  0.79235467  0.47882267  0.07535057  1.0
  Ni  Ni89  1  0.79235467  0.81215600  0.07535057  1.0
  Ni  Ni90  1  0.29235467  0.31215600  0.08565857  1.0
  Ni  Ni91  1  0.29235467  0.64548933  0.08565857  1.0
  Ni  Ni92  1  0.29235467  0.97882267  0.08565857  1.0
  Ni  Ni93  1  0.62568800  0.31215600  0.08565857  1.0
  Ni  Ni94  1  0.62568800  0.64548933  0.08565857  1.0
  Ni  Ni95  1  0.62568800  0.97882267  0.08565857  1.0
  Ni  Ni96  1  0.95902133  0.31215600  0.08565857  1.0
  Ni  Ni97  1  0.95902133  0.64548933  0.08565857  1.0
  Ni  Ni98  1  0.95902133  0.97882267  0.08565857  1.0
  Ni  Ni99  1  0.29235467  0.14548933  0.01423000  1.0
  Ni  Ni100  1  0.29235467  0.47882267  0.01423000  1.0
  Ni  Ni101  1  0.29235467  0.81215600  0.01423000  1.0
  Ni  Ni102  1  0.62568800  0.14548933  0.01423000  1.0
  Ni  Ni103  1  0.62568800  0.47882267  0.01423000  1.0
  Ni  Ni104  1  0.62568800  0.81215600  0.01423000  1.0
  Ni  Ni105  1  0.95902133  0.14548933  0.01423000  1.0
  Ni  Ni106  1  0.95902133  0.47882267  0.01423000  1.0
  Ni  Ni107  1  0.95902133  0.81215600  0.01423000  1.0
  Ni  Ni108  1  0.20764533  0.02117733  0.13893514  1.0
  Ni  Ni109  1  0.20764533  0.35451067  0.13893514  1.0
  Ni  Ni110  1  0.20764533  0.68784400  0.13893514  1.0
  Ni  Ni111  1  0.54097867  0.02117733  0.13893514  1.0
  Ni  Ni112  1  0.54097867  0.35451067  0.13893514  1.0
  Ni  Ni113  1  0.54097867  0.68784400  0.13893514  1.0
  Ni  Ni114  1  0.87431200  0.02117733  0.13893514  1.0
  Ni  Ni115  1  0.87431200  0.35451067  0.13893514  1.0
  Ni  Ni116  1  0.87431200  0.68784400  0.13893514  1.0
  Ni  Ni117  1  0.20764533  0.18784400  0.06750657  1.0
  Ni  Ni118  1  0.20764533  0.52117733  0.06750657  1.0
  Ni  Ni119  1  0.20764533  0.85451067  0.06750657  1.0
  Ni  Ni120  1  0.54097867  0.18784400  0.06750657  1.0
  Ni  Ni121  1  0.54097867  0.52117733  0.06750657  1.0
  Ni  Ni122  1  0.54097867  0.85451067  0.06750657  1.0
  Ni  Ni123  1  0.87431200  0.18784400  0.06750657  1.0
  Ni  Ni124  1  0.87431200  0.52117733  0.06750657  1.0
  Ni  Ni125  1  0.87431200  0.85451067  0.06750657  1.0
  Ni  Ni126  1  0.04097867  0.02117733  0.05719857  1.0
  Ni  Ni127  1  0.04097867  0.35451067  0.05719857  1.0
  Ni  Ni128  1  0.04097867  0.68784400  0.05719857  1.0
  Ni  Ni129  1  0.37431200  0.02117733  0.05719857  1.0
  Ni  Ni130  1  0.37431200  0.35451067  0.05719857  1.0
  Ni  Ni131  1  0.37431200  0.68784400  0.05719857  1.0
  Ni  Ni132  1  0.70764533  0.02117733  0.05719857  1.0
  Ni  Ni133  1  0.70764533  0.35451067  0.05719857  1.0
  Ni  Ni134  1  0.70764533  0.68784400  0.05719857  1.0
  Ni  Ni135  1  0.04097867  0.18784400  0.12862714  1.0
  Ni  Ni136  1  0.04097867  0.52117733  0.12862714  1.0
  Ni  Ni137  1  0.04097867  0.85451067  0.12862714  1.0
  Ni  Ni138  1  0.37431200  0.18784400  0.12862714  1.0
  Ni  Ni139  1  0.37431200  0.52117733  0.12862714  1.0
  Ni  Ni140  1  0.37431200  0.85451067  0.12862714  1.0
  Ni  Ni141  1  0.70764533  0.18784400  0.12862714  1.0
  Ni  Ni142  1  0.70764533  0.52117733  0.12862714  1.0
  Ni  Ni143  1  0.70764533  0.85451067  0.12862714  1.0
  Y  Y144  1  0.28931867  0.23034067  0.16131671  1.0
  Y  Y145  1  0.28931867  0.56367400  0.16131671  1.0
  Y  Y146  1  0.28931867  0.89700733  0.16131671  1.0
  Y  Y147  1  0.62265200  0.23034067  0.16131671  1.0
  Y  Y148  1  0.62265200  0.56367400  0.16131671  1.0
  Y  Y149  1  0.62265200  0.89700733  0.16131671  1.0
  Y  Y150  1  0.95598533  0.23034067  0.16131671  1.0
  Y  Y151  1  0.95598533  0.56367400  0.16131671  1.0
  Y  Y152  1  0.95598533  0.89700733  0.16131671  1.0
  Y  Y153  1  0.28931867  0.06367400  0.23274529  1.0
  Y  Y154  1  0.28931867  0.39700733  0.23274529  1.0
  Y  Y155  1  0.28931867  0.73034067  0.23274529  1.0
  Y  Y156  1  0.62265200  0.06367400  0.23274529  1.0
  Y  Y157  1  0.62265200  0.39700733  0.23274529  1.0
  Y  Y158  1  0.62265200  0.73034067  0.23274529  1.0
  Y  Y159  1  0.95598533  0.06367400  0.23274529  1.0
  Y  Y160  1  0.95598533  0.39700733  0.23274529  1.0
  Y  Y161  1  0.95598533  0.73034067  0.23274529  1.0
  Y  Y162  1  0.12265200  0.06367400  0.21267700  1.0
  Y  Y163  1  0.12265200  0.39700733  0.21267700  1.0
  Y  Y164  1  0.12265200  0.73034067  0.21267700  1.0
  Y  Y165  1  0.45598533  0.06367400  0.21267700  1.0
  Y  Y166  1  0.45598533  0.39700733  0.21267700  1.0
  Y  Y167  1  0.45598533  0.73034067  0.21267700  1.0
  Y  Y168  1  0.78931867  0.06367400  0.21267700  1.0
  Y  Y169  1  0.78931867  0.39700733  0.21267700  1.0
  Y  Y170  1  0.78931867  0.73034067  0.21267700  1.0
  Y  Y171  1  0.12265200  0.23034067  0.28410557  1.0
  Y  Y172  1  0.12265200  0.56367400  0.28410557  1.0
  Y  Y173  1  0.12265200  0.89700733  0.28410557  1.0
  Y  Y174  1  0.45598533  0.23034067  0.28410557  1.0
  Y  Y175  1  0.45598533  0.56367400  0.28410557  1.0
  Y  Y176  1  0.45598533  0.89700733  0.28410557  1.0
  Y  Y177  1  0.78931867  0.23034067  0.28410557  1.0
  Y  Y178  1  0.78931867  0.56367400  0.28410557  1.0
  Y  Y179  1  0.78931867  0.89700733  0.28410557  1.0
  Y  Y180  1  0.04401467  0.10299267  0.26725471  1.0
  Y  Y181  1  0.04401467  0.43632600  0.26725471  1.0
  Y  Y182  1  0.04401467  0.76965933  0.26725471  1.0
  Y  Y183  1  0.37734800  0.10299267  0.26725471  1.0
  Y  Y184  1  0.37734800  0.43632600  0.26725471  1.0
  Y  Y185  1  0.37734800  0.76965933  0.26725471  1.0
  Y  Y186  1  0.71068133  0.10299267  0.26725471  1.0
  Y  Y187  1  0.71068133  0.43632600  0.26725471  1.0
  Y  Y188  1  0.71068133  0.76965933  0.26725471  1.0
  Y  Y189  1  0.04401467  0.26965933  0.19582614  1.0
  Y  Y190  1  0.04401467  0.60299267  0.19582614  1.0
  Y  Y191  1  0.04401467  0.93632600  0.19582614  1.0
  Y  Y192  1  0.37734800  0.26965933  0.19582614  1.0
  Y  Y193  1  0.37734800  0.60299267  0.19582614  1.0
  Y  Y194  1  0.37734800  0.93632600  0.19582614  1.0
  Y  Y195  1  0.71068133  0.26965933  0.19582614  1.0
  Y  Y196  1  0.71068133  0.60299267  0.19582614  1.0
  Y  Y197  1  0.71068133  0.93632600  0.19582614  1.0
  Y  Y198  1  0.21068133  0.26965933  0.21589443  1.0
  Y  Y199  1  0.21068133  0.60299267  0.21589443  1.0
  Y  Y200  1  0.21068133  0.93632600  0.21589443  1.0
  Y  Y201  1  0.54401467  0.26965933  0.21589443  1.0
  Y  Y202  1  0.54401467  0.60299267  0.21589443  1.0
  Y  Y203  1  0.54401467  0.93632600  0.21589443  1.0
  Y  Y204  1  0.87734800  0.26965933  0.21589443  1.0
  Y  Y205  1  0.87734800  0.60299267  0.21589443  1.0
  Y  Y206  1  0.87734800  0.93632600  0.21589443  1.0
  Y  Y207  1  0.21068133  0.10299267  0.14446586  1.0
  Y  Y208  1  0.21068133  0.43632600  0.14446586  1.0
  Y  Y209  1  0.21068133  0.76965933  0.14446586  1.0
  Y  Y210  1  0.54401467  0.10299267  0.14446586  1.0
  Y  Y211  1  0.54401467  0.43632600  0.14446586  1.0
  Y  Y212  1  0.54401467  0.76965933  0.14446586  1.0
  Y  Y213  1  0.87734800  0.10299267  0.14446586  1.0
  Y  Y214  1  0.87734800  0.43632600  0.14446586  1.0
  Y  Y215  1  0.87734800  0.76965933  0.14446586  1.0
  Ni  Ni216  1  0.12568800  0.31215600  0.14677914  1.0
  Ni  Ni217  1  0.12568800  0.64548933  0.14677914  1.0
  Ni  Ni218  1  0.12568800  0.97882267  0.14677914  1.0
  Ni  Ni219  1  0.45902133  0.31215600  0.14677914  1.0
  Ni  Ni220  1  0.45902133  0.64548933  0.14677914  1.0
  Ni  Ni221  1  0.45902133  0.97882267  0.14677914  1.0
  Ni  Ni222  1  0.79235467  0.31215600  0.14677914  1.0
  Ni  Ni223  1  0.79235467  0.64548933  0.14677914  1.0
  Ni  Ni224  1  0.79235467  0.97882267  0.14677914  1.0
  Ni  Ni225  1  0.12568800  0.14548933  0.21820771  1.0
  Ni  Ni226  1  0.12568800  0.47882267  0.21820771  1.0
  Ni  Ni227  1  0.12568800  0.81215600  0.21820771  1.0
  Ni  Ni228  1  0.45902133  0.14548933  0.21820771  1.0
  Ni  Ni229  1  0.45902133  0.47882267  0.21820771  1.0
  Ni  Ni230  1  0.45902133  0.81215600  0.21820771  1.0
  Ni  Ni231  1  0.79235467  0.14548933  0.21820771  1.0
  Ni  Ni232  1  0.79235467  0.47882267  0.21820771  1.0
  Ni  Ni233  1  0.79235467  0.81215600  0.21820771  1.0
  Ni  Ni234  1  0.29235467  0.31215600  0.22851571  1.0
  Ni  Ni235  1  0.29235467  0.64548933  0.22851571  1.0
  Ni  Ni236  1  0.29235467  0.97882267  0.22851571  1.0
  Ni  Ni237  1  0.62568800  0.31215600  0.22851571  1.0
  Ni  Ni238  1  0.62568800  0.64548933  0.22851571  1.0
  Ni  Ni239  1  0.62568800  0.97882267  0.22851571  1.0
  Ni  Ni240  1  0.95902133  0.31215600  0.22851571  1.0
  Ni  Ni241  1  0.95902133  0.64548933  0.22851571  1.0
  Ni  Ni242  1  0.95902133  0.97882267  0.22851571  1.0
  Ni  Ni243  1  0.29235467  0.14548933  0.15708714  1.0
  Ni  Ni244  1  0.29235467  0.47882267  0.15708714  1.0
  Ni  Ni245  1  0.29235467  0.81215600  0.15708714  1.0
  Ni  Ni246  1  0.62568800  0.14548933  0.15708714  1.0
  Ni  Ni247  1  0.62568800  0.47882267  0.15708714  1.0
  Ni  Ni248  1  0.62568800  0.81215600  0.15708714  1.0
  Ni  Ni249  1  0.95902133  0.14548933  0.15708714  1.0
  Ni  Ni250  1  0.95902133  0.47882267  0.15708714  1.0
  Ni  Ni251  1  0.95902133  0.81215600  0.15708714  1.0
  Ni  Ni252  1  0.20764533  0.02117733  0.28179229  1.0
  Ni  Ni253  1  0.20764533  0.35451067  0.28179229  1.0
  Ni  Ni254  1  0.20764533  0.68784400  0.28179229  1.0
  Ni  Ni255  1  0.54097867  0.02117733  0.28179229  1.0
  Ni  Ni256  1  0.54097867  0.35451067  0.28179229  1.0
  Ni  Ni257  1  0.54097867  0.68784400  0.28179229  1.0
  Ni  Ni258  1  0.87431200  0.02117733  0.28179229  1.0
  Ni  Ni259  1  0.87431200  0.35451067  0.28179229  1.0
  Ni  Ni260  1  0.87431200  0.68784400  0.28179229  1.0
  Ni  Ni261  1  0.20764533  0.18784400  0.21036371  1.0
  Ni  Ni262  1  0.20764533  0.52117733  0.21036371  1.0
  Ni  Ni263  1  0.20764533  0.85451067  0.21036371  1.0
  Ni  Ni264  1  0.54097867  0.18784400  0.21036371  1.0
  Ni  Ni265  1  0.54097867  0.52117733  0.21036371  1.0
  Ni  Ni266  1  0.54097867  0.85451067  0.21036371  1.0
  Ni  Ni267  1  0.87431200  0.18784400  0.21036371  1.0
  Ni  Ni268  1  0.87431200  0.52117733  0.21036371  1.0
  Ni  Ni269  1  0.87431200  0.85451067  0.21036371  1.0
  Ni  Ni270  1  0.04097867  0.02117733  0.20005571  1.0
  Ni  Ni271  1  0.04097867  0.35451067  0.20005571  1.0
  Ni  Ni272  1  0.04097867  0.68784400  0.20005571  1.0
  Ni  Ni273  1  0.37431200  0.02117733  0.20005571  1.0
  Ni  Ni274  1  0.37431200  0.35451067  0.20005571  1.0
  Ni  Ni275  1  0.37431200  0.68784400  0.20005571  1.0
  Ni  Ni276  1  0.70764533  0.02117733  0.20005571  1.0
  Ni  Ni277  1  0.70764533  0.35451067  0.20005571  1.0
  Ni  Ni278  1  0.70764533  0.68784400  0.20005571  1.0
  Ni  Ni279  1  0.04097867  0.18784400  0.27148429  1.0
  Ni  Ni280  1  0.04097867  0.52117733  0.27148429  1.0
  Ni  Ni281  1  0.04097867  0.85451067  0.27148429  1.0
  Ni  Ni282  1  0.37431200  0.18784400  0.27148429  1.0
  Ni  Ni283  1  0.37431200  0.52117733  0.27148429  1.0
  Ni  Ni284  1  0.37431200  0.85451067  0.27148429  1.0
  Ni  Ni285  1  0.70764533  0.18784400  0.27148429  1.0
  Ni  Ni286  1  0.70764533  0.52117733  0.27148429  1.0
  Ni  Ni287  1  0.70764533  0.85451067  0.27148429  1.0
  Y  Y288  1  0.28931867  0.23034067  0.30417386  1.0
  Y  Y289  1  0.28931867  0.56367400  0.30417386  1.0
  Y  Y290  1  0.28931867  0.89700733  0.30417386  1.0
  Y  Y291  1  0.62265200  0.23034067  0.30417386  1.0
  Y  Y292  1  0.62265200  0.56367400  0.30417386  1.0
  Y  Y293  1  0.62265200  0.89700733  0.30417386  1.0
  Y  Y294  1  0.95598533  0.23034067  0.30417386  1.0
  Y  Y295  1  0.95598533  0.56367400  0.30417386  1.0
  Y  Y296  1  0.95598533  0.89700733  0.30417386  1.0
  Y  Y297  1  0.28931867  0.06367400  0.37560243  1.0
  Y  Y298  1  0.28931867  0.39700733  0.37560243  1.0
  Y  Y299  1  0.28931867  0.73034067  0.37560243  1.0
  Y  Y300  1  0.62265200  0.06367400  0.37560243  1.0
  Y  Y301  1  0.62265200  0.39700733  0.37560243  1.0
  Y  Y302  1  0.62265200  0.73034067  0.37560243  1.0
  Y  Y303  1  0.95598533  0.06367400  0.37560243  1.0
  Y  Y304  1  0.95598533  0.39700733  0.37560243  1.0
  Y  Y305  1  0.95598533  0.73034067  0.37560243  1.0
  Y  Y306  1  0.12265200  0.06367400  0.35553414  1.0
  Y  Y307  1  0.12265200  0.39700733  0.35553414  1.0
  Y  Y308  1  0.12265200  0.73034067  0.35553414  1.0
  Y  Y309  1  0.45598533  0.06367400  0.35553414  1.0
  Y  Y310  1  0.45598533  0.39700733  0.35553414  1.0
  Y  Y311  1  0.45598533  0.73034067  0.35553414  1.0
  Y  Y312  1  0.78931867  0.06367400  0.35553414  1.0
  Y  Y313  1  0.78931867  0.39700733  0.35553414  1.0
  Y  Y314  1  0.78931867  0.73034067  0.35553414  1.0
  Y  Y315  1  0.12265200  0.23034067  0.42696271  1.0
  Y  Y316  1  0.12265200  0.56367400  0.42696271  1.0
  Y  Y317  1  0.12265200  0.89700733  0.42696271  1.0
  Y  Y318  1  0.45598533  0.23034067  0.42696271  1.0
  Y  Y319  1  0.45598533  0.56367400  0.42696271  1.0
  Y  Y320  1  0.45598533  0.89700733  0.42696271  1.0
  Y  Y321  1  0.78931867  0.23034067  0.42696271  1.0
  Y  Y322  1  0.78931867  0.56367400  0.42696271  1.0
  Y  Y323  1  0.78931867  0.89700733  0.42696271  1.0
  Y  Y324  1  0.04401467  0.10299267  0.41011186  1.0
  Y  Y325  1  0.04401467  0.43632600  0.41011186  1.0
  Y  Y326  1  0.04401467  0.76965933  0.41011186  1.0
  Y  Y327  1  0.37734800  0.10299267  0.41011186  1.0
  Y  Y328  1  0.37734800  0.43632600  0.41011186  1.0
  Y  Y329  1  0.37734800  0.76965933  0.41011186  1.0
  Y  Y330  1  0.71068133  0.10299267  0.41011186  1.0
  Y  Y331  1  0.71068133  0.43632600  0.41011186  1.0
  Y  Y332  1  0.71068133  0.76965933  0.41011186  1.0
  Y  Y333  1  0.04401467  0.26965933  0.33868329  1.0
  Y  Y334  1  0.04401467  0.60299267  0.33868329  1.0
  Y  Y335  1  0.04401467  0.93632600  0.33868329  1.0
  Y  Y336  1  0.37734800  0.26965933  0.33868329  1.0
  Y  Y337  1  0.37734800  0.60299267  0.33868329  1.0
  Y  Y338  1  0.37734800  0.93632600  0.33868329  1.0
  Y  Y339  1  0.71068133  0.26965933  0.33868329  1.0
  Y  Y340  1  0.71068133  0.60299267  0.33868329  1.0
  Y  Y341  1  0.71068133  0.93632600  0.33868329  1.0
  Y  Y342  1  0.21068133  0.26965933  0.35875157  1.0
  Y  Y343  1  0.21068133  0.60299267  0.35875157  1.0
  Y  Y344  1  0.21068133  0.93632600  0.35875157  1.0
  Y  Y345  1  0.54401467  0.26965933  0.35875157  1.0
  Y  Y346  1  0.54401467  0.60299267  0.35875157  1.0
  Y  Y347  1  0.54401467  0.93632600  0.35875157  1.0
  Y  Y348  1  0.87734800  0.26965933  0.35875157  1.0
  Y  Y349  1  0.87734800  0.60299267  0.35875157  1.0
  Y  Y350  1  0.87734800  0.93632600  0.35875157  1.0
  Y  Y351  1  0.21068133  0.10299267  0.28732300  1.0
  Y  Y352  1  0.21068133  0.43632600  0.28732300  1.0
  Y  Y353  1  0.21068133  0.76965933  0.28732300  1.0
  Y  Y354  1  0.54401467  0.10299267  0.28732300  1.0
  Y  Y355  1  0.54401467  0.43632600  0.28732300  1.0
  Y  Y356  1  0.54401467  0.76965933  0.28732300  1.0
  Y  Y357  1  0.87734800  0.10299267  0.28732300  1.0
  Y  Y358  1  0.87734800  0.43632600  0.28732300  1.0
  Y  Y359  1  0.87734800  0.76965933  0.28732300  1.0
  Ni  Ni360  1  0.12568800  0.31215600  0.28963629  1.0
  Ni  Ni361  1  0.12568800  0.64548933  0.28963629  1.0
  Ni  Ni362  1  0.12568800  0.97882267  0.28963629  1.0
  Ni  Ni363  1  0.45902133  0.31215600  0.28963629  1.0
  Ni  Ni364  1  0.45902133  0.64548933  0.28963629  1.0
  Ni  Ni365  1  0.45902133  0.97882267  0.28963629  1.0
  Ni  Ni366  1  0.79235467  0.31215600  0.28963629  1.0
  Ni  Ni367  1  0.79235467  0.64548933  0.28963629  1.0
  Ni  Ni368  1  0.79235467  0.97882267  0.28963629  1.0
  Ni  Ni369  1  0.12568800  0.14548933  0.36106486  1.0
  Ni  Ni370  1  0.12568800  0.47882267  0.36106486  1.0
  Ni  Ni371  1  0.12568800  0.81215600  0.36106486  1.0
  Ni  Ni372  1  0.45902133  0.14548933  0.36106486  1.0
  Ni  Ni373  1  0.45902133  0.47882267  0.36106486  1.0
  Ni  Ni374  1  0.45902133  0.81215600  0.36106486  1.0
  Ni  Ni375  1  0.79235467  0.14548933  0.36106486  1.0
  Ni  Ni376  1  0.79235467  0.47882267  0.36106486  1.0
  Ni  Ni377  1  0.79235467  0.81215600  0.36106486  1.0
  Ni  Ni378  1  0.29235467  0.31215600  0.37137286  1.0
  Ni  Ni379  1  0.29235467  0.64548933  0.37137286  1.0
  Ni  Ni380  1  0.29235467  0.97882267  0.37137286  1.0
  Ni  Ni381  1  0.62568800  0.31215600  0.37137286  1.0
  Ni  Ni382  1  0.62568800  0.64548933  0.37137286  1.0
  Ni  Ni383  1  0.62568800  0.97882267  0.37137286  1.0
  Ni  Ni384  1  0.95902133  0.31215600  0.37137286  1.0
  Ni  Ni385  1  0.95902133  0.64548933  0.37137286  1.0
  Ni  Ni386  1  0.95902133  0.97882267  0.37137286  1.0
  Ni  Ni387  1  0.29235467  0.14548933  0.29994429  1.0
  Ni  Ni388  1  0.29235467  0.47882267  0.29994429  1.0
  Ni  Ni389  1  0.29235467  0.81215600  0.29994429  1.0
  Ni  Ni390  1  0.62568800  0.14548933  0.29994429  1.0
  Ni  Ni391  1  0.62568800  0.47882267  0.29994429  1.0
  Ni  Ni392  1  0.62568800  0.81215600  0.29994429  1.0
  Ni  Ni393  1  0.95902133  0.14548933  0.29994429  1.0
  Ni  Ni394  1  0.95902133  0.47882267  0.29994429  1.0
  Ni  Ni395  1  0.95902133  0.81215600  0.29994429  1.0
  Ni  Ni396  1  0.20764533  0.02117733  0.42464943  1.0
  Ni  Ni397  1  0.20764533  0.35451067  0.42464943  1.0
  Ni  Ni398  1  0.20764533  0.68784400  0.42464943  1.0
  Ni  Ni399  1  0.54097867  0.02117733  0.42464943  1.0
  Ni  Ni400  1  0.54097867  0.35451067  0.42464943  1.0
  Ni  Ni401  1  0.54097867  0.68784400  0.42464943  1.0
  Ni  Ni402  1  0.87431200  0.02117733  0.42464943  1.0
  Ni  Ni403  1  0.87431200  0.35451067  0.42464943  1.0
  Ni  Ni404  1  0.87431200  0.68784400  0.42464943  1.0
  Ni  Ni405  1  0.20764533  0.18784400  0.35322086  1.0
  Ni  Ni406  1  0.20764533  0.52117733  0.35322086  1.0
  Ni  Ni407  1  0.20764533  0.85451067  0.35322086  1.0
  Ni  Ni408  1  0.54097867  0.18784400  0.35322086  1.0
  Ni  Ni409  1  0.54097867  0.52117733  0.35322086  1.0
  Ni  Ni410  1  0.54097867  0.85451067  0.35322086  1.0
  Ni  Ni411  1  0.87431200  0.18784400  0.35322086  1.0
  Ni  Ni412  1  0.87431200  0.52117733  0.35322086  1.0
  Ni  Ni413  1  0.87431200  0.85451067  0.35322086  1.0
  Ni  Ni414  1  0.04097867  0.02117733  0.34291286  1.0
  Ni  Ni415  1  0.04097867  0.35451067  0.34291286  1.0
  Ni  Ni416  1  0.04097867  0.68784400  0.34291286  1.0
  Ni  Ni417  1  0.37431200  0.02117733  0.34291286  1.0
  Ni  Ni418  1  0.37431200  0.35451067  0.34291286  1.0
  Ni  Ni419  1  0.37431200  0.68784400  0.34291286  1.0
  Ni  Ni420  1  0.70764533  0.02117733  0.34291286  1.0
  Ni  Ni421  1  0.70764533  0.35451067  0.34291286  1.0
  Ni  Ni422  1  0.70764533  0.68784400  0.34291286  1.0
  Ni  Ni423  1  0.04097867  0.18784400  0.41434143  1.0
  Ni  Ni424  1  0.04097867  0.52117733  0.41434143  1.0
  Ni  Ni425  1  0.04097867  0.85451067  0.41434143  1.0
  Ni  Ni426  1  0.37431200  0.18784400  0.41434143  1.0
  Ni  Ni427  1  0.37431200  0.52117733  0.41434143  1.0
  Ni  Ni428  1  0.37431200  0.85451067  0.41434143  1.0
  Ni  Ni429  1  0.70764533  0.18784400  0.41434143  1.0
  Ni  Ni430  1  0.70764533  0.52117733  0.41434143  1.0
  Ni  Ni431  1  0.70764533  0.85451067  0.41434143  1.0
