# generated using pymatgen
data_YNi
_symmetry_space_group_name_H-M   'P 1'
_cell_length_a   16.44429300
_cell_length_b   21.43649400
_cell_length_c   28.91871500
_cell_angle_alpha   90.00000000
_cell_angle_beta   90.00000000
_cell_angle_gamma   90.00000000
_symmetry_Int_Tables_number   1
_chemical_formula_structural   YNi
_chemical_formula_sum   'Y108 Ni108'
_cell_volume   10194.07804681
_cell_formula_units_Z   108
loop_
 _symmetry_equiv_pos_site_id
 _symmetry_equiv_pos_as_xyz
  1  'x, y, z'
loop_
 _atom_site_type_symbol
 _atom_site_label
 _atom_site_symmetry_multiplicity
 _atom_site_fract_x
 _atom_site_fract_y
 _atom_site_fract_z
 _atom_site_occupancy
  Y  Y0  1  0.28931867  0.27341300  0.10714286  1.0
  Y  Y1  1  0.28931867  0.60674633  0.10714286  1.0
  Y  Y2  1  0.28931867  0.94007967  0.10714286  1.0
  Y  Y3  1  0.62265200  0.27341300  0.10714286  1.0
  Y  Y4  1  0.62265200  0.60674633  0.10714286  1.0
  Y  Y5  1  0.62265200  0.94007967  0.10714286  1.0
  Y  Y6  1  0.95598533  0.27341300  0.10714286  1.0
  Y  Y7  1  0.95598533  0.60674633  0.10714286  1.0
  Y  Y8  1  0.95598533  0.94007967  0.10714286  1.0
  Y  Y9  1  0.12265200  0.22658700  0.03571429  1.0
  Y  Y10  1  0.12265200  0.55992033  0.03571429  1.0
  Y  Y11  1  0.12265200  0.89325367  0.03571429  1.0
  Y  Y12  1  0.45598533  0.22658700  0.03571429  1.0
  Y  Y13  1  0.45598533  0.55992033  0.03571429  1.0
  Y  Y14  1  0.45598533  0.89325367  0.03571429  1.0
  Y  Y15  1  0.78931867  0.22658700  0.03571429  1.0
  Y  Y16  1  0.78931867  0.55992033  0.03571429  1.0
  Y  Y17  1  0.78931867  0.89325367  0.03571429  1.0
  Y  Y18  1  0.04401467  0.05992033  0.03571429  1.0
  Y  Y19  1  0.04401467  0.39325367  0.03571429  1.0
  Y  Y20  1  0.04401467  0.72658700  0.03571429  1.0
  Y  Y21  1  0.37734800  0.05992033  0.03571429  1.0
  Y  Y22  1  0.37734800  0.39325367  0.03571429  1.0
  Y  Y23  1  0.37734800  0.72658700  0.03571429  1.0
  Y  Y24  1  0.71068133  0.05992033  0.03571429  1.0
  Y  Y25  1  0.71068133  0.39325367  0.03571429  1.0
  Y  Y26  1  0.71068133  0.72658700  0.03571429  1.0
  Y  Y27  1  0.21068133  0.10674633  0.10714286  1.0
  Y  Y28  1  0.21068133  0.44007967  0.10714286  1.0
  Y  Y29  1  0.21068133  0.77341300  0.10714286  1.0
  Y  Y30  1  0.54401467  0.10674633  0.10714286  1.0
  Y  Y31  1  0.54401467  0.44007967  0.10714286  1.0
  Y  Y32  1  0.54401467  0.77341300  0.10714286  1.0
  Y  Y33  1  0.87734800  0.10674633  0.10714286  1.0
  Y  Y34  1  0.87734800  0.44007967  0.10714286  1.0
  Y  Y35  1  0.87734800  0.77341300  0.10714286  1.0
  Ni  Ni36  1  0.12568800  0.32130733  0.10714286  1.0
  Ni  Ni37  1  0.12568800  0.65464067  0.10714286  1.0
  Ni  Ni38  1  0.12568800  0.98797400  0.10714286  1.0
  Ni  Ni39  1  0.45902133  0.32130733  0.10714286  1.0
  Ni  Ni40  1  0.45902133  0.65464067  0.10714286  1.0
  Ni  Ni41  1  0.45902133  0.98797400  0.10714286  1.0
  Ni  Ni42  1  0.79235467  0.32130733  0.10714286  1.0
  Ni  Ni43  1  0.79235467  0.65464067  0.10714286  1.0
  Ni  Ni44  1  0.79235467  0.98797400  0.10714286  1.0
  Ni  Ni45  1  0.29235467  0.17869267  0.03571429  1.0
  Ni  Ni46  1  0.29235467  0.51202600  0.03571429  1.0
  Ni  Ni47  1  0.29235467  0.84535933  0.03571429  1.0
  Ni  Ni48  1  0.62568800  0.17869267  0.03571429  1.0
  Ni  Ni49  1  0.62568800  0.51202600  0.03571429  1.0
  Ni  Ni50  1  0.62568800  0.84535933  0.03571429  1.0
  Ni  Ni51  1  0.95902133  0.17869267  0.03571429  1.0
  Ni  Ni52  1  0.95902133  0.51202600  0.03571429  1.0
  Ni  Ni53  1  0.95902133  0.84535933  0.03571429  1.0
  Ni  Ni54  1  0.20764533  0.01202600  0.03571429  1.0
  Ni  Ni55  1  0.20764533  0.34535933  0.03571429  1.0
  Ni  Ni56  1  0.20764533  0.67869267  0.03571429  1.0
  Ni  Ni57  1  0.54097867  0.01202600  0.03571429  1.0
  Ni  Ni58  1  0.54097867  0.34535933  0.03571429  1.0
  Ni  Ni59  1  0.54097867  0.67869267  0.03571429  1.0
  Ni  Ni60  1  0.87431200  0.01202600  0.03571429  1.0
  Ni  Ni61  1  0.87431200  0.34535933  0.03571429  1.0
  Ni  Ni62  1  0.87431200  0.67869267  0.03571429  1.0
  Ni  Ni63  1  0.04097867  0.15464067  0.10714286  1.0
  Ni  Ni64  1  0.04097867  0.48797400  0.10714286  1.0
  Ni  Ni65  1  0.04097867  0.82130733  0.10714286  1.0
  Ni  Ni66  1  0.37431200  0.15464067  0.10714286  1.0
  Ni  Ni67  1  0.37431200  0.48797400  0.10714286  1.0
  Ni  Ni68  1  0.37431200  0.82130733  0.10714286  1.0
  Ni  Ni69  1  0.70764533  0.15464067  0.10714286  1.0
  Ni  Ni70  1  0.70764533  0.48797400  0.10714286  1.0
  Ni  Ni71  1  0.70764533  0.82130733  0.10714286  1.0
  Y  Y72  1  0.28931867  0.27341300  0.25000000  1.0
  Y  Y73  1  0.28931867  0.60674633  0.25000000  1.0
  Y  Y74  1  0.28931867  0.94007967  0.25000000  1.0
  Y  Y75  1  0.62265200  0.27341300  0.25000000  1.0
  Y  Y76  1  0.62265200  0.60674633  0.25000000  1.0
  Y  Y77  1  0.62265200  0.94007967  0.25000000  1.0
  Y  Y78  1  0.95598533  0.27341300  0.25000000  1.0
  Y  Y79  1  0.95598533  0.60674633  0.25000000  1.0
  Y  Y80  1  0.95598533  0.94007967  0.25000000  1.0
  Y  Y81  1  0.12265200  0.22658700  0.17857143  1.0
  Y  Y82  1  0.12265200  0.55992033  0.17857143  1.0
  Y  Y83  1  0.12265200  0.89325367  0.17857143  1.0
  Y  Y84  1  0.45598533  0.22658700  0.17857143  1.0
  Y  Y85  1  0.45598533  0.55992033  0.17857143  1.0
  Y  Y86  1  0.45598533  0.89325367  0.17857143  1.0
  Y  Y87  1  0.78931867  0.22658700  0.17857143  1.0
  Y  Y88  1  0.78931867  0.55992033  0.17857143  1.0
  Y  Y89  1  0.78931867  0.89325367  0.17857143  1.0
  Y  Y90  1  0.04401467  0.05992033  0.17857143  1.0
  Y  Y91  1  0.04401467  0.39325367  0.17857143  1.0
  Y  Y92  1  0.04401467  0.72658700  0.17857143  1.0
  Y  Y93  1  0.37734800  0.05992033  0.17857143  1.0
  Y  Y94  1  0.37734800  0.39325367  0.17857143  1.0
  Y  Y95  1  0.37734800  0.72658700  0.17857143  1.0
  Y  Y96  1  0.71068133  0.05992033  0.17857143  1.0
  Y  Y97  1  0.71068133  0.39325367  0.17857143  1.0
  Y  Y98  1  0.71068133  0.72658700  0.17857143  1.0
  Y  Y99  1  0.21068133  0.10674633  0.25000000  1.0
  Y  Y100  1  0.21068133  0.44007967  0.25000000  1.0
  Y  Y101  1  0.21068133  0.77341300  0.25000000  1.0
  Y  Y102  1  0.54401467  0.10674633  0.25000000  1.0
  Y  Y103  1  0.54401467  0.44007967  0.25000000  1.0
  Y  Y104  1  0.54401467  0.77341300  0.25000000  1.0
  Y  Y105  1  0.87734800  0.10674633  0.25000000  1.0
  Y  Y106  1  0.87734800  0.44007967  0.25000000  1.0
  Y  Y107  1  0.87734800  0.77341300  0.25000000  1.0
  Ni  Ni108  1  0.12568800  0.32130733  0.25000000  1.0
  Ni  Ni109  1  0.12568800  0.65464067  0.25000000  1.0
  Ni  Ni110  1  0.12568800  0.98797400  0.25000000  1.0
  Ni  Ni111  1  0.45902133  0.32130733  0.25000000  1.0
  Ni  Ni112  1  0.45902133  0.65464067  0.25000000  1.0
  Ni  Ni113  1  0.45902133  0.98797400  0.25000000  1.0
  Ni  Ni114  1  0.79235467  0.32130733  0.25000000  1.0
  Ni  Ni115  1  0.79235467  0.65464067  0.25000000  1.0
  Ni  Ni116  1  0.79235467  0.98797400  0.25000000  1.0
  Ni  Ni117  1  0.29235467  0.17869267  0.17857143  1.0
  Ni  Ni118  1  0.29235467  0.51202600  0.17857143  1.0
  Ni  Ni119  1  0.29235467  0.84535933  0.17857143  1.0
  Ni  Ni120  1  0.62568800  0.17869267  0.17857143  1.0
  Ni  Ni121  1  0.62568800  0.51202600  0.17857143  1.0
  Ni  Ni122  1  0.62568800  0.84535933  0.17857143  1.0
  Ni  Ni123  1  0.95902133  0.17869267  0.17857143  1.0
  Ni  Ni124  1  0.95902133  0.51202600  0.17857143  1.0
  Ni  Ni125  1  0.95902133  0.84535933  0.17857143  1.0
  Ni  Ni126  1  0.20764533  0.01202600  0.17857143  1.0
  Ni  Ni127  1  0.20764533  0.34535933  0.17857143  1.0
  Ni  Ni128  1  0.20764533  0.67869267  0.17857143  1.0
  Ni  Ni129  1  0.54097867  0.01202600  0.17857143  1.0
  Ni  Ni130  1  0.54097867  0.34535933  0.17857143  1.0
  Ni  Ni131  1  0.54097867  0.67869267  0.17857143  1.0
  Ni  Ni132  1  0.87431200  0.01202600  0.17857143  1.0
  Ni  Ni133  1  0.87431200  0.34535933  0.17857143  1.0
  Ni  Ni134  1  0.87431200  0.67869267  0.17857143  1.0
  Ni  Ni135  1  0.04097867  0.15464067  0.25000000  1.0
  Ni  Ni136  1  0.04097867  0.48797400  0.25000000  1.0
  Ni  Ni137  1  0.04097867  0.82130733  0.25000000  1.0
  Ni  Ni138  1  0.37431200  0.15464067  0.25000000  1.0
  Ni  Ni139  1  0.37431200  0.48797400  0.25000000  1.0
  Ni  Ni140  1  0.37431200  0.82130733  0.25000000  1.0
  Ni  Ni141  1  0.70764533  0.15464067  0.25000000  1.0
  Ni  Ni142  1  0.70764533  0.48797400  0.25000000  1.0
  Ni  Ni143  1  0.70764533  0.82130733  0.25000000  1.0
  Y  Y144  1  0.28931867  0.27341300  0.39285714  1.0
  Y  Y145  1  0.28931867  0.60674633  0.39285714  1.0
  Y  Y146  1  0.28931867  0.94007967  0.39285714  1.0
  Y  Y147  1  0.62265200  0.27341300  0.39285714  1.0
  Y  Y148  1  0.62265200  0.60674633  0.39285714  1.0
  Y  Y149  1  0.62265200  0.94007967  0.39285714  1.0
  Y  Y150  1  0.95598533  0.27341300  0.39285714  1.0
  Y  Y151  1  0.95598533  0.60674633  0.39285714  1.0
  Y  Y152  1  0.95598533  0.94007967  0.39285714  1.0
  Y  Y153  1  0.12265200  0.22658700  0.32142857  1.0
  Y  Y154  1  0.12265200  0.55992033  0.32142857  1.0
  Y  Y155  1  0.12265200  0.89325367  0.32142857  1.0
  Y  Y156  1  0.45598533  0.22658700  0.32142857  1.0
  Y  Y157  1  0.45598533  0.55992033  0.32142857  1.0
  Y  Y158  1  0.45598533  0.89325367  0.32142857  1.0
  Y  Y159  1  0.78931867  0.22658700  0.32142857  1.0
  Y  Y160  1  0.78931867  0.55992033  0.32142857  1.0
  Y  Y161  1  0.78931867  0.89325367  0.32142857  1.0
  Y  Y162  1  0.04401467  0.05992033  0.32142857  1.0
  Y  Y163  1  0.04401467  0.39325367  0.32142857  1.0
  Y  Y164  1  0.04401467  0.72658700  0.32142857  1.0
  Y  Y165  1  0.37734800  0.05992033  0.32142857  1.0
  Y  Y166  1  0.37734800  0.39325367  0.32142857  1.0
  Y  Y167  1  0.37734800  0.72658700  0.32142857  1.0
  Y  Y168  1  0.71068133  0.05992033  0.32142857  1.0
  Y  Y169  1  0.71068133  0.39325367  0.32142857  1.0
  Y  Y170  1  0.71068133  0.72658700  0.32142857  1.0
  Y  Y171  1  0.21068133  0.10674633  0.39285714  1.0
  Y  Y172  1  0.21068133  0.44007967  0.39285714  1.0
  Y  Y173  1  0.21068133  0.77341300  0.39285714  1.0
  Y  Y174  1  0.54401467  0.10674633  0.39285714  1.0
  Y  Y175  1  0.54401467  0.44007967  0.39285714  1.0
  Y  Y176  1  0.54401467  0.77341300  0.39285714  1.0
  Y  Y177  1  0.87734800  0.10674633  0.39285714  1.0
  Y  Y178  1  0.87734800  0.44007967  0.39285714  1.0
  Y  Y179  1  0.87734800  0.77341300  0.39285714  1.0
  Ni  Ni180  1  0.12568800  0.32130733  0.39285714  1.0
  Ni  Ni181  1  0.12568800  0.65464067  0.39285714  1.0
  Ni  Ni182  1  0.12568800  0.98797400  0.39285714  1.0
  Ni  Ni183  1  0.45902133  0.32130733  0.39285714  1.0
  Ni  Ni184  1  0.45902133  0.65464067  0.39285714  1.0
  Ni  Ni185  1  0.45902133  0.98797400  0.39285714  1.0
  Ni  Ni186  1  0.79235467  0.32130733  0.39285714  1.0
  Ni  Ni187  1  0.79235467  0.65464067  0.39285714  1.0
  Ni  Ni188  1  0.79235467  0.98797400  0.39285714  1.0
  Ni  Ni189  1  0.29235467  0.17869267  0.32142857  1.0
  Ni  Ni190  1  0.29235467  0.51202600  0.32142857  1.0
  Ni  Ni191  1  0.29235467  0.84535933  0.32142857  1.0
  Ni  Ni192  1  0.62568800  0.17869267  0.32142857  1.0
  Ni  Ni193  1  0.62568800  0.51202600  0.32142857  1.0
  Ni  Ni194  1  0.62568800  0.84535933  0.32142857  1.0
  Ni  Ni195  1  0.95902133  0.17869267  0.32142857  1.0
  Ni  Ni196  1  0.95902133  0.51202600  0.32142857  1.0
  Ni  Ni197  1  0.95902133  0.84535933  0.32142857  1.0
  Ni  Ni198  1  0.20764533  0.01202600  0.32142857  1.0
  Ni  Ni199  1  0.20764533  0.34535933  0.32142857  1.0
  Ni  Ni200  1  0.20764533  0.67869267  0.32142857  1.0
  Ni  Ni201  1  0.54097867  0.01202600  0.32142857  1.0
  Ni  Ni202  1  0.54097867  0.34535933  0.32142857  1.0
  Ni  Ni203  1  0.54097867  0.67869267  0.32142857  1.0
  Ni  Ni204  1  0.87431200  0.01202600  0.32142857  1.0
  Ni  Ni205  1  0.87431200  0.34535933  0.32142857  1.0
  Ni  Ni206  1  0.87431200  0.67869267  0.32142857  1.0
  Ni  Ni207  1  0.04097867  0.15464067  0.39285714  1.0
  Ni  Ni208  1  0.04097867  0.48797400  0.39285714  1.0
  Ni  Ni209  1  0.04097867  0.82130733  0.39285714  1.0
  Ni  Ni210  1  0.37431200  0.15464067  0.39285714  1.0
  Ni  Ni211  1  0.37431200  0.48797400  0.39285714  1.0
  Ni  Ni212  1  0.37431200  0.82130733  0.39285714  1.0
  Ni  Ni213  1  0.70764533  0.15464067  0.39285714  1.0
  Ni  Ni214  1  0.70764533  0.48797400  0.39285714  1.0
  Ni  Ni215  1  0.70764533  0.82130733  0.39285714  1.0
