# generated using pymatgen
data_Zn11Ni2
_symmetry_space_group_name_H-M   'P 1'
_cell_length_a   38.03229545
_cell_length_b   26.89289402
_cell_length_c   54.34316860
_cell_angle_alpha   54.73561032
_cell_angle_beta   35.26438968
_cell_angle_gamma   45.00000000
_symmetry_Int_Tables_number   1
_chemical_formula_structural   Zn11Ni2
_chemical_formula_sum   'Zn594 Ni108'
_cell_volume   22691.30172952
_cell_formula_units_Z   54
loop_
 _symmetry_equiv_pos_site_id
 _symmetry_equiv_pos_as_xyz
  1  'x, y, z'
loop_
 _atom_site_type_symbol
 _atom_site_label
 _atom_site_symmetry_multiplicity
 _atom_site_fract_x
 _atom_site_fract_y
 _atom_site_fract_z
 _atom_site_occupancy
  Zn  Zn0  1  0.00000000  0.00000000  0.10655129  1.0
  Zn  Zn1  1  0.00000000  0.33333333  0.10655129  1.0
  Zn  Zn2  1  0.00000000  0.66666667  0.10655129  1.0
  Zn  Zn3  1  0.33333333  0.00000000  0.10655129  1.0
  Zn  Zn4  1  0.33333333  0.33333333  0.10655129  1.0
  Zn  Zn5  1  0.33333333  0.66666667  0.10655129  1.0
  Zn  Zn6  1  0.66666667  0.00000000  0.10655129  1.0
  Zn  Zn7  1  0.66666667  0.33333333  0.10655129  1.0
  Zn  Zn8  1  0.66666667  0.66666667  0.10655129  1.0
  Zn  Zn9  1  0.07005900  0.00000000  0.10655129  1.0
  Zn  Zn10  1  0.07005900  0.33333333  0.10655129  1.0
  Zn  Zn11  1  0.07005900  0.66666667  0.10655129  1.0
  Zn  Zn12  1  0.40339233  0.00000000  0.10655129  1.0
  Zn  Zn13  1  0.40339233  0.33333333  0.10655129  1.0
  Zn  Zn14  1  0.40339233  0.66666667  0.10655129  1.0
  Zn  Zn15  1  0.73672567  0.00000000  0.10655129  1.0
  Zn  Zn16  1  0.73672567  0.33333333  0.10655129  1.0
  Zn  Zn17  1  0.73672567  0.66666667  0.10655129  1.0
  Zn  Zn18  1  0.00000000  0.26327433  0.02374471  1.0
  Zn  Zn19  1  0.00000000  0.59660767  0.02374471  1.0
  Zn  Zn20  1  0.00000000  0.92994100  0.02374471  1.0
  Zn  Zn21  1  0.33333333  0.26327433  0.02374471  1.0
  Zn  Zn22  1  0.33333333  0.59660767  0.02374471  1.0
  Zn  Zn23  1  0.33333333  0.92994100  0.02374471  1.0
  Zn  Zn24  1  0.66666667  0.26327433  0.02374471  1.0
  Zn  Zn25  1  0.66666667  0.59660767  0.02374471  1.0
  Zn  Zn26  1  0.66666667  0.92994100  0.02374471  1.0
  Zn  Zn27  1  0.26327433  0.07005900  0.02374471  1.0
  Zn  Zn28  1  0.26327433  0.40339233  0.02374471  1.0
  Zn  Zn29  1  0.26327433  0.73672567  0.02374471  1.0
  Zn  Zn30  1  0.59660767  0.07005900  0.02374471  1.0
  Zn  Zn31  1  0.59660767  0.40339233  0.02374471  1.0
  Zn  Zn32  1  0.59660767  0.73672567  0.02374471  1.0
  Zn  Zn33  1  0.92994100  0.07005900  0.02374471  1.0
  Zn  Zn34  1  0.92994100  0.40339233  0.02374471  1.0
  Zn  Zn35  1  0.92994100  0.73672567  0.02374471  1.0
  Zn  Zn36  1  0.21469300  0.11864033  0.13657657  1.0
  Zn  Zn37  1  0.21469300  0.45197367  0.13657657  1.0
  Zn  Zn38  1  0.21469300  0.78530700  0.13657657  1.0
  Zn  Zn39  1  0.54802633  0.11864033  0.13657657  1.0
  Zn  Zn40  1  0.54802633  0.45197367  0.13657657  1.0
  Zn  Zn41  1  0.54802633  0.78530700  0.13657657  1.0
  Zn  Zn42  1  0.88135967  0.11864033  0.13657657  1.0
  Zn  Zn43  1  0.88135967  0.45197367  0.13657657  1.0
  Zn  Zn44  1  0.88135967  0.78530700  0.13657657  1.0
  Zn  Zn45  1  0.00000000  0.21469300  0.13657657  1.0
  Zn  Zn46  1  0.00000000  0.54802633  0.13657657  1.0
  Zn  Zn47  1  0.00000000  0.88135967  0.13657657  1.0
  Zn  Zn48  1  0.33333333  0.21469300  0.13657657  1.0
  Zn  Zn49  1  0.33333333  0.54802633  0.13657657  1.0
  Zn  Zn50  1  0.33333333  0.88135967  0.13657657  1.0
  Zn  Zn51  1  0.66666667  0.21469300  0.13657657  1.0
  Zn  Zn52  1  0.66666667  0.54802633  0.13657657  1.0
  Zn  Zn53  1  0.66666667  0.88135967  0.13657657  1.0
  Zn  Zn54  1  0.11864033  0.00000000  0.03488486  1.0
  Zn  Zn55  1  0.11864033  0.33333333  0.03488486  1.0
  Zn  Zn56  1  0.11864033  0.66666667  0.03488486  1.0
  Zn  Zn57  1  0.45197367  0.00000000  0.03488486  1.0
  Zn  Zn58  1  0.45197367  0.33333333  0.03488486  1.0
  Zn  Zn59  1  0.45197367  0.66666667  0.03488486  1.0
  Zn  Zn60  1  0.78530700  0.00000000  0.03488486  1.0
  Zn  Zn61  1  0.78530700  0.33333333  0.03488486  1.0
  Zn  Zn62  1  0.78530700  0.66666667  0.03488486  1.0
  Zn  Zn63  1  0.11864033  0.21469300  0.13657657  1.0
  Zn  Zn64  1  0.11864033  0.54802633  0.13657657  1.0
  Zn  Zn65  1  0.11864033  0.88135967  0.13657657  1.0
  Zn  Zn66  1  0.45197367  0.21469300  0.13657657  1.0
  Zn  Zn67  1  0.45197367  0.54802633  0.13657657  1.0
  Zn  Zn68  1  0.45197367  0.88135967  0.13657657  1.0
  Zn  Zn69  1  0.78530700  0.21469300  0.13657657  1.0
  Zn  Zn70  1  0.78530700  0.54802633  0.13657657  1.0
  Zn  Zn71  1  0.78530700  0.88135967  0.13657657  1.0
  Zn  Zn72  1  0.00000000  0.11864033  0.13657657  1.0
  Zn  Zn73  1  0.00000000  0.45197367  0.13657657  1.0
  Zn  Zn74  1  0.00000000  0.78530700  0.13657657  1.0
  Zn  Zn75  1  0.33333333  0.11864033  0.13657657  1.0
  Zn  Zn76  1  0.33333333  0.45197367  0.13657657  1.0
  Zn  Zn77  1  0.33333333  0.78530700  0.13657657  1.0
  Zn  Zn78  1  0.66666667  0.11864033  0.13657657  1.0
  Zn  Zn79  1  0.66666667  0.45197367  0.13657657  1.0
  Zn  Zn80  1  0.66666667  0.78530700  0.13657657  1.0
  Zn  Zn81  1  0.21469300  0.00000000  0.09541114  1.0
  Zn  Zn82  1  0.21469300  0.33333333  0.09541114  1.0
  Zn  Zn83  1  0.21469300  0.66666667  0.09541114  1.0
  Zn  Zn84  1  0.54802633  0.00000000  0.09541114  1.0
  Zn  Zn85  1  0.54802633  0.33333333  0.09541114  1.0
  Zn  Zn86  1  0.54802633  0.66666667  0.09541114  1.0
  Zn  Zn87  1  0.88135967  0.00000000  0.09541114  1.0
  Zn  Zn88  1  0.88135967  0.33333333  0.09541114  1.0
  Zn  Zn89  1  0.88135967  0.66666667  0.09541114  1.0
  Zn  Zn90  1  0.24555533  0.00000000  0.12401543  1.0
  Zn  Zn91  1  0.24555533  0.33333333  0.12401543  1.0
  Zn  Zn92  1  0.24555533  0.66666667  0.12401543  1.0
  Zn  Zn93  1  0.57888867  0.00000000  0.12401543  1.0
  Zn  Zn94  1  0.57888867  0.33333333  0.12401543  1.0
  Zn  Zn95  1  0.57888867  0.66666667  0.12401543  1.0
  Zn  Zn96  1  0.91222200  0.00000000  0.12401543  1.0
  Zn  Zn97  1  0.91222200  0.33333333  0.12401543  1.0
  Zn  Zn98  1  0.91222200  0.66666667  0.12401543  1.0
  Zn  Zn99  1  0.08777800  0.24555533  0.04877714  1.0
  Zn  Zn100  1  0.08777800  0.57888867  0.04877714  1.0
  Zn  Zn101  1  0.08777800  0.91222200  0.04877714  1.0
  Zn  Zn102  1  0.42111133  0.24555533  0.04877714  1.0
  Zn  Zn103  1  0.42111133  0.57888867  0.04877714  1.0
  Zn  Zn104  1  0.42111133  0.91222200  0.04877714  1.0
  Zn  Zn105  1  0.75444467  0.24555533  0.04877714  1.0
  Zn  Zn106  1  0.75444467  0.57888867  0.04877714  1.0
  Zn  Zn107  1  0.75444467  0.91222200  0.04877714  1.0
  Zn  Zn108  1  0.00000000  0.08777800  0.04877714  1.0
  Zn  Zn109  1  0.00000000  0.42111133  0.04877714  1.0
  Zn  Zn110  1  0.00000000  0.75444467  0.04877714  1.0
  Zn  Zn111  1  0.33333333  0.08777800  0.04877714  1.0
  Zn  Zn112  1  0.33333333  0.42111133  0.04877714  1.0
  Zn  Zn113  1  0.33333333  0.75444467  0.04877714  1.0
  Zn  Zn114  1  0.66666667  0.08777800  0.04877714  1.0
  Zn  Zn115  1  0.66666667  0.42111133  0.04877714  1.0
  Zn  Zn116  1  0.66666667  0.75444467  0.04877714  1.0
  Zn  Zn117  1  0.11708733  0.00000000  0.12401543  1.0
  Zn  Zn118  1  0.11708733  0.33333333  0.12401543  1.0
  Zn  Zn119  1  0.11708733  0.66666667  0.12401543  1.0
  Zn  Zn120  1  0.45042067  0.00000000  0.12401543  1.0
  Zn  Zn121  1  0.45042067  0.33333333  0.12401543  1.0
  Zn  Zn122  1  0.45042067  0.66666667  0.12401543  1.0
  Zn  Zn123  1  0.78375400  0.00000000  0.12401543  1.0
  Zn  Zn124  1  0.78375400  0.33333333  0.12401543  1.0
  Zn  Zn125  1  0.78375400  0.66666667  0.12401543  1.0
  Zn  Zn126  1  0.11708733  0.08777800  0.04877714  1.0
  Zn  Zn127  1  0.11708733  0.42111133  0.04877714  1.0
  Zn  Zn128  1  0.11708733  0.75444467  0.04877714  1.0
  Zn  Zn129  1  0.45042067  0.08777800  0.04877714  1.0
  Zn  Zn130  1  0.45042067  0.42111133  0.04877714  1.0
  Zn  Zn131  1  0.45042067  0.75444467  0.04877714  1.0
  Zn  Zn132  1  0.78375400  0.08777800  0.04877714  1.0
  Zn  Zn133  1  0.78375400  0.42111133  0.04877714  1.0
  Zn  Zn134  1  0.78375400  0.75444467  0.04877714  1.0
  Zn  Zn135  1  0.20486533  0.24555533  0.04877714  1.0
  Zn  Zn136  1  0.20486533  0.57888867  0.04877714  1.0
  Zn  Zn137  1  0.20486533  0.91222200  0.04877714  1.0
  Zn  Zn138  1  0.53819867  0.24555533  0.04877714  1.0
  Zn  Zn139  1  0.53819867  0.57888867  0.04877714  1.0
  Zn  Zn140  1  0.53819867  0.91222200  0.04877714  1.0
  Zn  Zn141  1  0.87153200  0.24555533  0.04877714  1.0
  Zn  Zn142  1  0.87153200  0.57888867  0.04877714  1.0
  Zn  Zn143  1  0.87153200  0.91222200  0.04877714  1.0
  Zn  Zn144  1  0.08777800  0.12846800  0.00628057  1.0
  Zn  Zn145  1  0.08777800  0.46180133  0.00628057  1.0
  Zn  Zn146  1  0.08777800  0.79513467  0.00628057  1.0
  Zn  Zn147  1  0.42111133  0.12846800  0.00628057  1.0
  Zn  Zn148  1  0.42111133  0.46180133  0.00628057  1.0
  Zn  Zn149  1  0.42111133  0.79513467  0.00628057  1.0
  Zn  Zn150  1  0.75444467  0.12846800  0.00628057  1.0
  Zn  Zn151  1  0.75444467  0.46180133  0.00628057  1.0
  Zn  Zn152  1  0.75444467  0.79513467  0.00628057  1.0
  Zn  Zn153  1  0.24555533  0.21624600  0.08151886  1.0
  Zn  Zn154  1  0.24555533  0.54957933  0.08151886  1.0
  Zn  Zn155  1  0.24555533  0.88291267  0.08151886  1.0
  Zn  Zn156  1  0.57888867  0.21624600  0.08151886  1.0
  Zn  Zn157  1  0.57888867  0.54957933  0.08151886  1.0
  Zn  Zn158  1  0.57888867  0.88291267  0.08151886  1.0
  Zn  Zn159  1  0.91222200  0.21624600  0.08151886  1.0
  Zn  Zn160  1  0.91222200  0.54957933  0.08151886  1.0
  Zn  Zn161  1  0.91222200  0.88291267  0.08151886  1.0
  Zn  Zn162  1  0.00000000  0.21624600  0.08151886  1.0
  Zn  Zn163  1  0.00000000  0.54957933  0.08151886  1.0
  Zn  Zn164  1  0.00000000  0.88291267  0.08151886  1.0
  Zn  Zn165  1  0.33333333  0.21624600  0.08151886  1.0
  Zn  Zn166  1  0.33333333  0.54957933  0.08151886  1.0
  Zn  Zn167  1  0.33333333  0.88291267  0.08151886  1.0
  Zn  Zn168  1  0.66666667  0.21624600  0.08151886  1.0
  Zn  Zn169  1  0.66666667  0.54957933  0.08151886  1.0
  Zn  Zn170  1  0.66666667  0.88291267  0.08151886  1.0
  Zn  Zn171  1  0.21624600  0.20486533  0.00628057  1.0
  Zn  Zn172  1  0.21624600  0.53819867  0.00628057  1.0
  Zn  Zn173  1  0.21624600  0.87153200  0.00628057  1.0
  Zn  Zn174  1  0.54957933  0.20486533  0.00628057  1.0
  Zn  Zn175  1  0.54957933  0.53819867  0.00628057  1.0
  Zn  Zn176  1  0.54957933  0.87153200  0.00628057  1.0
  Zn  Zn177  1  0.88291267  0.20486533  0.00628057  1.0
  Zn  Zn178  1  0.88291267  0.53819867  0.00628057  1.0
  Zn  Zn179  1  0.88291267  0.87153200  0.00628057  1.0
  Zn  Zn180  1  0.21624600  0.11708733  0.08151886  1.0
  Zn  Zn181  1  0.21624600  0.45042067  0.08151886  1.0
  Zn  Zn182  1  0.21624600  0.78375400  0.08151886  1.0
  Zn  Zn183  1  0.54957933  0.11708733  0.08151886  1.0
  Zn  Zn184  1  0.54957933  0.45042067  0.08151886  1.0
  Zn  Zn185  1  0.54957933  0.78375400  0.08151886  1.0
  Zn  Zn186  1  0.88291267  0.11708733  0.08151886  1.0
  Zn  Zn187  1  0.88291267  0.45042067  0.08151886  1.0
  Zn  Zn188  1  0.88291267  0.78375400  0.08151886  1.0
  Zn  Zn189  1  0.12846800  0.11708733  0.08151886  1.0
  Zn  Zn190  1  0.12846800  0.45042067  0.08151886  1.0
  Zn  Zn191  1  0.12846800  0.78375400  0.08151886  1.0
  Zn  Zn192  1  0.46180133  0.11708733  0.08151886  1.0
  Zn  Zn193  1  0.46180133  0.45042067  0.08151886  1.0
  Zn  Zn194  1  0.46180133  0.78375400  0.08151886  1.0
  Zn  Zn195  1  0.79513467  0.11708733  0.08151886  1.0
  Zn  Zn196  1  0.79513467  0.45042067  0.08151886  1.0
  Zn  Zn197  1  0.79513467  0.78375400  0.08151886  1.0
  Ni  Ni198  1  0.00000000  0.00000000  0.04251743  1.0
  Ni  Ni199  1  0.00000000  0.33333333  0.04251743  1.0
  Ni  Ni200  1  0.00000000  0.66666667  0.04251743  1.0
  Ni  Ni201  1  0.33333333  0.00000000  0.04251743  1.0
  Ni  Ni202  1  0.33333333  0.33333333  0.04251743  1.0
  Ni  Ni203  1  0.33333333  0.66666667  0.04251743  1.0
  Ni  Ni204  1  0.66666667  0.00000000  0.04251743  1.0
  Ni  Ni205  1  0.66666667  0.33333333  0.04251743  1.0
  Ni  Ni206  1  0.66666667  0.66666667  0.04251743  1.0
  Ni  Ni207  1  0.21947133  0.00000000  0.04251743  1.0
  Ni  Ni208  1  0.21947133  0.33333333  0.04251743  1.0
  Ni  Ni209  1  0.21947133  0.66666667  0.04251743  1.0
  Ni  Ni210  1  0.55280467  0.00000000  0.04251743  1.0
  Ni  Ni211  1  0.55280467  0.33333333  0.04251743  1.0
  Ni  Ni212  1  0.55280467  0.66666667  0.04251743  1.0
  Ni  Ni213  1  0.88613800  0.00000000  0.04251743  1.0
  Ni  Ni214  1  0.88613800  0.33333333  0.04251743  1.0
  Ni  Ni215  1  0.88613800  0.66666667  0.04251743  1.0
  Ni  Ni216  1  0.00000000  0.11386200  0.08777857  1.0
  Ni  Ni217  1  0.00000000  0.44719533  0.08777857  1.0
  Ni  Ni218  1  0.00000000  0.78052867  0.08777857  1.0
  Ni  Ni219  1  0.33333333  0.11386200  0.08777857  1.0
  Ni  Ni220  1  0.33333333  0.44719533  0.08777857  1.0
  Ni  Ni221  1  0.33333333  0.78052867  0.08777857  1.0
  Ni  Ni222  1  0.66666667  0.11386200  0.08777857  1.0
  Ni  Ni223  1  0.66666667  0.44719533  0.08777857  1.0
  Ni  Ni224  1  0.66666667  0.78052867  0.08777857  1.0
  Ni  Ni225  1  0.11386200  0.21947133  0.08777857  1.0
  Ni  Ni226  1  0.11386200  0.55280467  0.08777857  1.0
  Ni  Ni227  1  0.11386200  0.88613800  0.08777857  1.0
  Ni  Ni228  1  0.44719533  0.21947133  0.08777857  1.0
  Ni  Ni229  1  0.44719533  0.55280467  0.08777857  1.0
  Ni  Ni230  1  0.44719533  0.88613800  0.08777857  1.0
  Ni  Ni231  1  0.78052867  0.21947133  0.08777857  1.0
  Ni  Ni232  1  0.78052867  0.55280467  0.08777857  1.0
  Ni  Ni233  1  0.78052867  0.88613800  0.08777857  1.0
  Zn  Zn234  1  0.00000000  0.00000000  0.24940843  1.0
  Zn  Zn235  1  0.00000000  0.33333333  0.24940843  1.0
  Zn  Zn236  1  0.00000000  0.66666667  0.24940843  1.0
  Zn  Zn237  1  0.33333333  0.00000000  0.24940843  1.0
  Zn  Zn238  1  0.33333333  0.33333333  0.24940843  1.0
  Zn  Zn239  1  0.33333333  0.66666667  0.24940843  1.0
  Zn  Zn240  1  0.66666667  0.00000000  0.24940843  1.0
  Zn  Zn241  1  0.66666667  0.33333333  0.24940843  1.0
  Zn  Zn242  1  0.66666667  0.66666667  0.24940843  1.0
  Zn  Zn243  1  0.07005900  0.00000000  0.24940843  1.0
  Zn  Zn244  1  0.07005900  0.33333333  0.24940843  1.0
  Zn  Zn245  1  0.07005900  0.66666667  0.24940843  1.0
  Zn  Zn246  1  0.40339233  0.00000000  0.24940843  1.0
  Zn  Zn247  1  0.40339233  0.33333333  0.24940843  1.0
  Zn  Zn248  1  0.40339233  0.66666667  0.24940843  1.0
  Zn  Zn249  1  0.73672567  0.00000000  0.24940843  1.0
  Zn  Zn250  1  0.73672567  0.33333333  0.24940843  1.0
  Zn  Zn251  1  0.73672567  0.66666667  0.24940843  1.0
  Zn  Zn252  1  0.00000000  0.26327433  0.16660186  1.0
  Zn  Zn253  1  0.00000000  0.59660767  0.16660186  1.0
  Zn  Zn254  1  0.00000000  0.92994100  0.16660186  1.0
  Zn  Zn255  1  0.33333333  0.26327433  0.16660186  1.0
  Zn  Zn256  1  0.33333333  0.59660767  0.16660186  1.0
  Zn  Zn257  1  0.33333333  0.92994100  0.16660186  1.0
  Zn  Zn258  1  0.66666667  0.26327433  0.16660186  1.0
  Zn  Zn259  1  0.66666667  0.59660767  0.16660186  1.0
  Zn  Zn260  1  0.66666667  0.92994100  0.16660186  1.0
  Zn  Zn261  1  0.26327433  0.07005900  0.16660186  1.0
  Zn  Zn262  1  0.26327433  0.40339233  0.16660186  1.0
  Zn  Zn263  1  0.26327433  0.73672567  0.16660186  1.0
  Zn  Zn264  1  0.59660767  0.07005900  0.16660186  1.0
  Zn  Zn265  1  0.59660767  0.40339233  0.16660186  1.0
  Zn  Zn266  1  0.59660767  0.73672567  0.16660186  1.0
  Zn  Zn267  1  0.92994100  0.07005900  0.16660186  1.0
  Zn  Zn268  1  0.92994100  0.40339233  0.16660186  1.0
  Zn  Zn269  1  0.92994100  0.73672567  0.16660186  1.0
  Zn  Zn270  1  0.21469300  0.11864033  0.27943371  1.0
  Zn  Zn271  1  0.21469300  0.45197367  0.27943371  1.0
  Zn  Zn272  1  0.21469300  0.78530700  0.27943371  1.0
  Zn  Zn273  1  0.54802633  0.11864033  0.27943371  1.0
  Zn  Zn274  1  0.54802633  0.45197367  0.27943371  1.0
  Zn  Zn275  1  0.54802633  0.78530700  0.27943371  1.0
  Zn  Zn276  1  0.88135967  0.11864033  0.27943371  1.0
  Zn  Zn277  1  0.88135967  0.45197367  0.27943371  1.0
  Zn  Zn278  1  0.88135967  0.78530700  0.27943371  1.0
  Zn  Zn279  1  0.00000000  0.21469300  0.27943371  1.0
  Zn  Zn280  1  0.00000000  0.54802633  0.27943371  1.0
  Zn  Zn281  1  0.00000000  0.88135967  0.27943371  1.0
  Zn  Zn282  1  0.33333333  0.21469300  0.27943371  1.0
  Zn  Zn283  1  0.33333333  0.54802633  0.27943371  1.0
  Zn  Zn284  1  0.33333333  0.88135967  0.27943371  1.0
  Zn  Zn285  1  0.66666667  0.21469300  0.27943371  1.0
  Zn  Zn286  1  0.66666667  0.54802633  0.27943371  1.0
  Zn  Zn287  1  0.66666667  0.88135967  0.27943371  1.0
  Zn  Zn288  1  0.11864033  0.00000000  0.17774200  1.0
  Zn  Zn289  1  0.11864033  0.33333333  0.17774200  1.0
  Zn  Zn290  1  0.11864033  0.66666667  0.17774200  1.0
  Zn  Zn291  1  0.45197367  0.00000000  0.17774200  1.0
  Zn  Zn292  1  0.45197367  0.33333333  0.17774200  1.0
  Zn  Zn293  1  0.45197367  0.66666667  0.17774200  1.0
  Zn  Zn294  1  0.78530700  0.00000000  0.17774200  1.0
  Zn  Zn295  1  0.78530700  0.33333333  0.17774200  1.0
  Zn  Zn296  1  0.78530700  0.66666667  0.17774200  1.0
  Zn  Zn297  1  0.11864033  0.21469300  0.27943371  1.0
  Zn  Zn298  1  0.11864033  0.54802633  0.27943371  1.0
  Zn  Zn299  1  0.11864033  0.88135967  0.27943371  1.0
  Zn  Zn300  1  0.45197367  0.21469300  0.27943371  1.0
  Zn  Zn301  1  0.45197367  0.54802633  0.27943371  1.0
  Zn  Zn302  1  0.45197367  0.88135967  0.27943371  1.0
  Zn  Zn303  1  0.78530700  0.21469300  0.27943371  1.0
  Zn  Zn304  1  0.78530700  0.54802633  0.27943371  1.0
  Zn  Zn305  1  0.78530700  0.88135967  0.27943371  1.0
  Zn  Zn306  1  0.00000000  0.11864033  0.27943371  1.0
  Zn  Zn307  1  0.00000000  0.45197367  0.27943371  1.0
  Zn  Zn308  1  0.00000000  0.78530700  0.27943371  1.0
  Zn  Zn309  1  0.33333333  0.11864033  0.27943371  1.0
  Zn  Zn310  1  0.33333333  0.45197367  0.27943371  1.0
  Zn  Zn311  1  0.33333333  0.78530700  0.27943371  1.0
  Zn  Zn312  1  0.66666667  0.11864033  0.27943371  1.0
  Zn  Zn313  1  0.66666667  0.45197367  0.27943371  1.0
  Zn  Zn314  1  0.66666667  0.78530700  0.27943371  1.0
  Zn  Zn315  1  0.21469300  0.00000000  0.23826829  1.0
  Zn  Zn316  1  0.21469300  0.33333333  0.23826829  1.0
  Zn  Zn317  1  0.21469300  0.66666667  0.23826829  1.0
  Zn  Zn318  1  0.54802633  0.00000000  0.23826829  1.0
  Zn  Zn319  1  0.54802633  0.33333333  0.23826829  1.0
  Zn  Zn320  1  0.54802633  0.66666667  0.23826829  1.0
  Zn  Zn321  1  0.88135967  0.00000000  0.23826829  1.0
  Zn  Zn322  1  0.88135967  0.33333333  0.23826829  1.0
  Zn  Zn323  1  0.88135967  0.66666667  0.23826829  1.0
  Zn  Zn324  1  0.24555533  0.00000000  0.26687257  1.0
  Zn  Zn325  1  0.24555533  0.33333333  0.26687257  1.0
  Zn  Zn326  1  0.24555533  0.66666667  0.26687257  1.0
  Zn  Zn327  1  0.57888867  0.00000000  0.26687257  1.0
  Zn  Zn328  1  0.57888867  0.33333333  0.26687257  1.0
  Zn  Zn329  1  0.57888867  0.66666667  0.26687257  1.0
  Zn  Zn330  1  0.91222200  0.00000000  0.26687257  1.0
  Zn  Zn331  1  0.91222200  0.33333333  0.26687257  1.0
  Zn  Zn332  1  0.91222200  0.66666667  0.26687257  1.0
  Zn  Zn333  1  0.08777800  0.24555533  0.19163429  1.0
  Zn  Zn334  1  0.08777800  0.57888867  0.19163429  1.0
  Zn  Zn335  1  0.08777800  0.91222200  0.19163429  1.0
  Zn  Zn336  1  0.42111133  0.24555533  0.19163429  1.0
  Zn  Zn337  1  0.42111133  0.57888867  0.19163429  1.0
  Zn  Zn338  1  0.42111133  0.91222200  0.19163429  1.0
  Zn  Zn339  1  0.75444467  0.24555533  0.19163429  1.0
  Zn  Zn340  1  0.75444467  0.57888867  0.19163429  1.0
  Zn  Zn341  1  0.75444467  0.91222200  0.19163429  1.0
  Zn  Zn342  1  0.00000000  0.08777800  0.19163429  1.0
  Zn  Zn343  1  0.00000000  0.42111133  0.19163429  1.0
  Zn  Zn344  1  0.00000000  0.75444467  0.19163429  1.0
  Zn  Zn345  1  0.33333333  0.08777800  0.19163429  1.0
  Zn  Zn346  1  0.33333333  0.42111133  0.19163429  1.0
  Zn  Zn347  1  0.33333333  0.75444467  0.19163429  1.0
  Zn  Zn348  1  0.66666667  0.08777800  0.19163429  1.0
  Zn  Zn349  1  0.66666667  0.42111133  0.19163429  1.0
  Zn  Zn350  1  0.66666667  0.75444467  0.19163429  1.0
  Zn  Zn351  1  0.11708733  0.00000000  0.26687257  1.0
  Zn  Zn352  1  0.11708733  0.33333333  0.26687257  1.0
  Zn  Zn353  1  0.11708733  0.66666667  0.26687257  1.0
  Zn  Zn354  1  0.45042067  0.00000000  0.26687257  1.0
  Zn  Zn355  1  0.45042067  0.33333333  0.26687257  1.0
  Zn  Zn356  1  0.45042067  0.66666667  0.26687257  1.0
  Zn  Zn357  1  0.78375400  0.00000000  0.26687257  1.0
  Zn  Zn358  1  0.78375400  0.33333333  0.26687257  1.0
  Zn  Zn359  1  0.78375400  0.66666667  0.26687257  1.0
  Zn  Zn360  1  0.11708733  0.08777800  0.19163429  1.0
  Zn  Zn361  1  0.11708733  0.42111133  0.19163429  1.0
  Zn  Zn362  1  0.11708733  0.75444467  0.19163429  1.0
  Zn  Zn363  1  0.45042067  0.08777800  0.19163429  1.0
  Zn  Zn364  1  0.45042067  0.42111133  0.19163429  1.0
  Zn  Zn365  1  0.45042067  0.75444467  0.19163429  1.0
  Zn  Zn366  1  0.78375400  0.08777800  0.19163429  1.0
  Zn  Zn367  1  0.78375400  0.42111133  0.19163429  1.0
  Zn  Zn368  1  0.78375400  0.75444467  0.19163429  1.0
  Zn  Zn369  1  0.20486533  0.24555533  0.19163429  1.0
  Zn  Zn370  1  0.20486533  0.57888867  0.19163429  1.0
  Zn  Zn371  1  0.20486533  0.91222200  0.19163429  1.0
  Zn  Zn372  1  0.53819867  0.24555533  0.19163429  1.0
  Zn  Zn373  1  0.53819867  0.57888867  0.19163429  1.0
  Zn  Zn374  1  0.53819867  0.91222200  0.19163429  1.0
  Zn  Zn375  1  0.87153200  0.24555533  0.19163429  1.0
  Zn  Zn376  1  0.87153200  0.57888867  0.19163429  1.0
  Zn  Zn377  1  0.87153200  0.91222200  0.19163429  1.0
  Zn  Zn378  1  0.08777800  0.12846800  0.14913771  1.0
  Zn  Zn379  1  0.08777800  0.46180133  0.14913771  1.0
  Zn  Zn380  1  0.08777800  0.79513467  0.14913771  1.0
  Zn  Zn381  1  0.42111133  0.12846800  0.14913771  1.0
  Zn  Zn382  1  0.42111133  0.46180133  0.14913771  1.0
  Zn  Zn383  1  0.42111133  0.79513467  0.14913771  1.0
  Zn  Zn384  1  0.75444467  0.12846800  0.14913771  1.0
  Zn  Zn385  1  0.75444467  0.46180133  0.14913771  1.0
  Zn  Zn386  1  0.75444467  0.79513467  0.14913771  1.0
  Zn  Zn387  1  0.24555533  0.21624600  0.22437600  1.0
  Zn  Zn388  1  0.24555533  0.54957933  0.22437600  1.0
  Zn  Zn389  1  0.24555533  0.88291267  0.22437600  1.0
  Zn  Zn390  1  0.57888867  0.21624600  0.22437600  1.0
  Zn  Zn391  1  0.57888867  0.54957933  0.22437600  1.0
  Zn  Zn392  1  0.57888867  0.88291267  0.22437600  1.0
  Zn  Zn393  1  0.91222200  0.21624600  0.22437600  1.0
  Zn  Zn394  1  0.91222200  0.54957933  0.22437600  1.0
  Zn  Zn395  1  0.91222200  0.88291267  0.22437600  1.0
  Zn  Zn396  1  0.00000000  0.21624600  0.22437600  1.0
  Zn  Zn397  1  0.00000000  0.54957933  0.22437600  1.0
  Zn  Zn398  1  0.00000000  0.88291267  0.22437600  1.0
  Zn  Zn399  1  0.33333333  0.21624600  0.22437600  1.0
  Zn  Zn400  1  0.33333333  0.54957933  0.22437600  1.0
  Zn  Zn401  1  0.33333333  0.88291267  0.22437600  1.0
  Zn  Zn402  1  0.66666667  0.21624600  0.22437600  1.0
  Zn  Zn403  1  0.66666667  0.54957933  0.22437600  1.0
  Zn  Zn404  1  0.66666667  0.88291267  0.22437600  1.0
  Zn  Zn405  1  0.21624600  0.20486533  0.14913771  1.0
  Zn  Zn406  1  0.21624600  0.53819867  0.14913771  1.0
  Zn  Zn407  1  0.21624600  0.87153200  0.14913771  1.0
  Zn  Zn408  1  0.54957933  0.20486533  0.14913771  1.0
  Zn  Zn409  1  0.54957933  0.53819867  0.14913771  1.0
  Zn  Zn410  1  0.54957933  0.87153200  0.14913771  1.0
  Zn  Zn411  1  0.88291267  0.20486533  0.14913771  1.0
  Zn  Zn412  1  0.88291267  0.53819867  0.14913771  1.0
  Zn  Zn413  1  0.88291267  0.87153200  0.14913771  1.0
  Zn  Zn414  1  0.21624600  0.11708733  0.22437600  1.0
  Zn  Zn415  1  0.21624600  0.45042067  0.22437600  1.0
  Zn  Zn416  1  0.21624600  0.78375400  0.22437600  1.0
  Zn  Zn417  1  0.54957933  0.11708733  0.22437600  1.0
  Zn  Zn418  1  0.54957933  0.45042067  0.22437600  1.0
  Zn  Zn419  1  0.54957933  0.78375400  0.22437600  1.0
  Zn  Zn420  1  0.88291267  0.11708733  0.22437600  1.0
  Zn  Zn421  1  0.88291267  0.45042067  0.22437600  1.0
  Zn  Zn422  1  0.88291267  0.78375400  0.22437600  1.0
  Zn  Zn423  1  0.12846800  0.11708733  0.22437600  1.0
  Zn  Zn424  1  0.12846800  0.45042067  0.22437600  1.0
  Zn  Zn425  1  0.12846800  0.78375400  0.22437600  1.0
  Zn  Zn426  1  0.46180133  0.11708733  0.22437600  1.0
  Zn  Zn427  1  0.46180133  0.45042067  0.22437600  1.0
  Zn  Zn428  1  0.46180133  0.78375400  0.22437600  1.0
  Zn  Zn429  1  0.79513467  0.11708733  0.22437600  1.0
  Zn  Zn430  1  0.79513467  0.45042067  0.22437600  1.0
  Zn  Zn431  1  0.79513467  0.78375400  0.22437600  1.0
  Ni  Ni432  1  0.00000000  0.00000000  0.18537457  1.0
  Ni  Ni433  1  0.00000000  0.33333333  0.18537457  1.0
  Ni  Ni434  1  0.00000000  0.66666667  0.18537457  1.0
  Ni  Ni435  1  0.33333333  0.00000000  0.18537457  1.0
  Ni  Ni436  1  0.33333333  0.33333333  0.18537457  1.0
  Ni  Ni437  1  0.33333333  0.66666667  0.18537457  1.0
  Ni  Ni438  1  0.66666667  0.00000000  0.18537457  1.0
  Ni  Ni439  1  0.66666667  0.33333333  0.18537457  1.0
  Ni  Ni440  1  0.66666667  0.66666667  0.18537457  1.0
  Ni  Ni441  1  0.21947133  0.00000000  0.18537457  1.0
  Ni  Ni442  1  0.21947133  0.33333333  0.18537457  1.0
  Ni  Ni443  1  0.21947133  0.66666667  0.18537457  1.0
  Ni  Ni444  1  0.55280467  0.00000000  0.18537457  1.0
  Ni  Ni445  1  0.55280467  0.33333333  0.18537457  1.0
  Ni  Ni446  1  0.55280467  0.66666667  0.18537457  1.0
  Ni  Ni447  1  0.88613800  0.00000000  0.18537457  1.0
  Ni  Ni448  1  0.88613800  0.33333333  0.18537457  1.0
  Ni  Ni449  1  0.88613800  0.66666667  0.18537457  1.0
  Ni  Ni450  1  0.00000000  0.11386200  0.23063571  1.0
  Ni  Ni451  1  0.00000000  0.44719533  0.23063571  1.0
  Ni  Ni452  1  0.00000000  0.78052867  0.23063571  1.0
  Ni  Ni453  1  0.33333333  0.11386200  0.23063571  1.0
  Ni  Ni454  1  0.33333333  0.44719533  0.23063571  1.0
  Ni  Ni455  1  0.33333333  0.78052867  0.23063571  1.0
  Ni  Ni456  1  0.66666667  0.11386200  0.23063571  1.0
  Ni  Ni457  1  0.66666667  0.44719533  0.23063571  1.0
  Ni  Ni458  1  0.66666667  0.78052867  0.23063571  1.0
  Ni  Ni459  1  0.11386200  0.21947133  0.23063571  1.0
  Ni  Ni460  1  0.11386200  0.55280467  0.23063571  1.0
  Ni  Ni461  1  0.11386200  0.88613800  0.23063571  1.0
  Ni  Ni462  1  0.44719533  0.21947133  0.23063571  1.0
  Ni  Ni463  1  0.44719533  0.55280467  0.23063571  1.0
  Ni  Ni464  1  0.44719533  0.88613800  0.23063571  1.0
  Ni  Ni465  1  0.78052867  0.21947133  0.23063571  1.0
  Ni  Ni466  1  0.78052867  0.55280467  0.23063571  1.0
  Ni  Ni467  1  0.78052867  0.88613800  0.23063571  1.0
  Zn  Zn468  1  0.00000000  0.00000000  0.39226557  1.0
  Zn  Zn469  1  0.00000000  0.33333333  0.39226557  1.0
  Zn  Zn470  1  0.00000000  0.66666667  0.39226557  1.0
  Zn  Zn471  1  0.33333333  0.00000000  0.39226557  1.0
  Zn  Zn472  1  0.33333333  0.33333333  0.39226557  1.0
  Zn  Zn473  1  0.33333333  0.66666667  0.39226557  1.0
  Zn  Zn474  1  0.66666667  0.00000000  0.39226557  1.0
  Zn  Zn475  1  0.66666667  0.33333333  0.39226557  1.0
  Zn  Zn476  1  0.66666667  0.66666667  0.39226557  1.0
  Zn  Zn477  1  0.07005900  0.00000000  0.39226557  1.0
  Zn  Zn478  1  0.07005900  0.33333333  0.39226557  1.0
  Zn  Zn479  1  0.07005900  0.66666667  0.39226557  1.0
  Zn  Zn480  1  0.40339233  0.00000000  0.39226557  1.0
  Zn  Zn481  1  0.40339233  0.33333333  0.39226557  1.0
  Zn  Zn482  1  0.40339233  0.66666667  0.39226557  1.0
  Zn  Zn483  1  0.73672567  0.00000000  0.39226557  1.0
  Zn  Zn484  1  0.73672567  0.33333333  0.39226557  1.0
  Zn  Zn485  1  0.73672567  0.66666667  0.39226557  1.0
  Zn  Zn486  1  0.00000000  0.26327433  0.30945900  1.0
  Zn  Zn487  1  0.00000000  0.59660767  0.30945900  1.0
  Zn  Zn488  1  0.00000000  0.92994100  0.30945900  1.0
  Zn  Zn489  1  0.33333333  0.26327433  0.30945900  1.0
  Zn  Zn490  1  0.33333333  0.59660767  0.30945900  1.0
  Zn  Zn491  1  0.33333333  0.92994100  0.30945900  1.0
  Zn  Zn492  1  0.66666667  0.26327433  0.30945900  1.0
  Zn  Zn493  1  0.66666667  0.59660767  0.30945900  1.0
  Zn  Zn494  1  0.66666667  0.92994100  0.30945900  1.0
  Zn  Zn495  1  0.26327433  0.07005900  0.30945900  1.0
  Zn  Zn496  1  0.26327433  0.40339233  0.30945900  1.0
  Zn  Zn497  1  0.26327433  0.73672567  0.30945900  1.0
  Zn  Zn498  1  0.59660767  0.07005900  0.30945900  1.0
  Zn  Zn499  1  0.59660767  0.40339233  0.30945900  1.0
  Zn  Zn500  1  0.59660767  0.73672567  0.30945900  1.0
  Zn  Zn501  1  0.92994100  0.07005900  0.30945900  1.0
  Zn  Zn502  1  0.92994100  0.40339233  0.30945900  1.0
  Zn  Zn503  1  0.92994100  0.73672567  0.30945900  1.0
  Zn  Zn504  1  0.21469300  0.11864033  0.42229086  1.0
  Zn  Zn505  1  0.21469300  0.45197367  0.42229086  1.0
  Zn  Zn506  1  0.21469300  0.78530700  0.42229086  1.0
  Zn  Zn507  1  0.54802633  0.11864033  0.42229086  1.0
  Zn  Zn508  1  0.54802633  0.45197367  0.42229086  1.0
  Zn  Zn509  1  0.54802633  0.78530700  0.42229086  1.0
  Zn  Zn510  1  0.88135967  0.11864033  0.42229086  1.0
  Zn  Zn511  1  0.88135967  0.45197367  0.42229086  1.0
  Zn  Zn512  1  0.88135967  0.78530700  0.42229086  1.0
  Zn  Zn513  1  0.00000000  0.21469300  0.42229086  1.0
  Zn  Zn514  1  0.00000000  0.54802633  0.42229086  1.0
  Zn  Zn515  1  0.00000000  0.88135967  0.42229086  1.0
  Zn  Zn516  1  0.33333333  0.21469300  0.42229086  1.0
  Zn  Zn517  1  0.33333333  0.54802633  0.42229086  1.0
  Zn  Zn518  1  0.33333333  0.88135967  0.42229086  1.0
  Zn  Zn519  1  0.66666667  0.21469300  0.42229086  1.0
  Zn  Zn520  1  0.66666667  0.54802633  0.42229086  1.0
  Zn  Zn521  1  0.66666667  0.88135967  0.42229086  1.0
  Zn  Zn522  1  0.11864033  0.00000000  0.32059914  1.0
  Zn  Zn523  1  0.11864033  0.33333333  0.32059914  1.0
  Zn  Zn524  1  0.11864033  0.66666667  0.32059914  1.0
  Zn  Zn525  1  0.45197367  0.00000000  0.32059914  1.0
  Zn  Zn526  1  0.45197367  0.33333333  0.32059914  1.0
  Zn  Zn527  1  0.45197367  0.66666667  0.32059914  1.0
  Zn  Zn528  1  0.78530700  0.00000000  0.32059914  1.0
  Zn  Zn529  1  0.78530700  0.33333333  0.32059914  1.0
  Zn  Zn530  1  0.78530700  0.66666667  0.32059914  1.0
  Zn  Zn531  1  0.11864033  0.21469300  0.42229086  1.0
  Zn  Zn532  1  0.11864033  0.54802633  0.42229086  1.0
  Zn  Zn533  1  0.11864033  0.88135967  0.42229086  1.0
  Zn  Zn534  1  0.45197367  0.21469300  0.42229086  1.0
  Zn  Zn535  1  0.45197367  0.54802633  0.42229086  1.0
  Zn  Zn536  1  0.45197367  0.88135967  0.42229086  1.0
  Zn  Zn537  1  0.78530700  0.21469300  0.42229086  1.0
  Zn  Zn538  1  0.78530700  0.54802633  0.42229086  1.0
  Zn  Zn539  1  0.78530700  0.88135967  0.42229086  1.0
  Zn  Zn540  1  0.00000000  0.11864033  0.42229086  1.0
  Zn  Zn541  1  0.00000000  0.45197367  0.42229086  1.0
  Zn  Zn542  1  0.00000000  0.78530700  0.42229086  1.0
  Zn  Zn543  1  0.33333333  0.11864033  0.42229086  1.0
  Zn  Zn544  1  0.33333333  0.45197367  0.42229086  1.0
  Zn  Zn545  1  0.33333333  0.78530700  0.42229086  1.0
  Zn  Zn546  1  0.66666667  0.11864033  0.42229086  1.0
  Zn  Zn547  1  0.66666667  0.45197367  0.42229086  1.0
  Zn  Zn548  1  0.66666667  0.78530700  0.42229086  1.0
  Zn  Zn549  1  0.21469300  0.00000000  0.38112543  1.0
  Zn  Zn550  1  0.21469300  0.33333333  0.38112543  1.0
  Zn  Zn551  1  0.21469300  0.66666667  0.38112543  1.0
  Zn  Zn552  1  0.54802633  0.00000000  0.38112543  1.0
  Zn  Zn553  1  0.54802633  0.33333333  0.38112543  1.0
  Zn  Zn554  1  0.54802633  0.66666667  0.38112543  1.0
  Zn  Zn555  1  0.88135967  0.00000000  0.38112543  1.0
  Zn  Zn556  1  0.88135967  0.33333333  0.38112543  1.0
  Zn  Zn557  1  0.88135967  0.66666667  0.38112543  1.0
  Zn  Zn558  1  0.24555533  0.00000000  0.40972971  1.0
  Zn  Zn559  1  0.24555533  0.33333333  0.40972971  1.0
  Zn  Zn560  1  0.24555533  0.66666667  0.40972971  1.0
  Zn  Zn561  1  0.57888867  0.00000000  0.40972971  1.0
  Zn  Zn562  1  0.57888867  0.33333333  0.40972971  1.0
  Zn  Zn563  1  0.57888867  0.66666667  0.40972971  1.0
  Zn  Zn564  1  0.91222200  0.00000000  0.40972971  1.0
  Zn  Zn565  1  0.91222200  0.33333333  0.40972971  1.0
  Zn  Zn566  1  0.91222200  0.66666667  0.40972971  1.0
  Zn  Zn567  1  0.08777800  0.24555533  0.33449143  1.0
  Zn  Zn568  1  0.08777800  0.57888867  0.33449143  1.0
  Zn  Zn569  1  0.08777800  0.91222200  0.33449143  1.0
  Zn  Zn570  1  0.42111133  0.24555533  0.33449143  1.0
  Zn  Zn571  1  0.42111133  0.57888867  0.33449143  1.0
  Zn  Zn572  1  0.42111133  0.91222200  0.33449143  1.0
  Zn  Zn573  1  0.75444467  0.24555533  0.33449143  1.0
  Zn  Zn574  1  0.75444467  0.57888867  0.33449143  1.0
  Zn  Zn575  1  0.75444467  0.91222200  0.33449143  1.0
  Zn  Zn576  1  0.00000000  0.08777800  0.33449143  1.0
  Zn  Zn577  1  0.00000000  0.42111133  0.33449143  1.0
  Zn  Zn578  1  0.00000000  0.75444467  0.33449143  1.0
  Zn  Zn579  1  0.33333333  0.08777800  0.33449143  1.0
  Zn  Zn580  1  0.33333333  0.42111133  0.33449143  1.0
  Zn  Zn581  1  0.33333333  0.75444467  0.33449143  1.0
  Zn  Zn582  1  0.66666667  0.08777800  0.33449143  1.0
  Zn  Zn583  1  0.66666667  0.42111133  0.33449143  1.0
  Zn  Zn584  1  0.66666667  0.75444467  0.33449143  1.0
  Zn  Zn585  1  0.11708733  0.00000000  0.40972971  1.0
  Zn  Zn586  1  0.11708733  0.33333333  0.40972971  1.0
  Zn  Zn587  1  0.11708733  0.66666667  0.40972971  1.0
  Zn  Zn588  1  0.45042067  0.00000000  0.40972971  1.0
  Zn  Zn589  1  0.45042067  0.33333333  0.40972971  1.0
  Zn  Zn590  1  0.45042067  0.66666667  0.40972971  1.0
  Zn  Zn591  1  0.78375400  0.00000000  0.40972971  1.0
  Zn  Zn592  1  0.78375400  0.33333333  0.40972971  1.0
  Zn  Zn593  1  0.78375400  0.66666667  0.40972971  1.0
  Zn  Zn594  1  0.11708733  0.08777800  0.33449143  1.0
  Zn  Zn595  1  0.11708733  0.42111133  0.33449143  1.0
  Zn  Zn596  1  0.11708733  0.75444467  0.33449143  1.0
  Zn  Zn597  1  0.45042067  0.08777800  0.33449143  1.0
  Zn  Zn598  1  0.45042067  0.42111133  0.33449143  1.0
  Zn  Zn599  1  0.45042067  0.75444467  0.33449143  1.0
  Zn  Zn600  1  0.78375400  0.08777800  0.33449143  1.0
  Zn  Zn601  1  0.78375400  0.42111133  0.33449143  1.0
  Zn  Zn602  1  0.78375400  0.75444467  0.33449143  1.0
  Zn  Zn603  1  0.20486533  0.24555533  0.33449143  1.0
  Zn  Zn604  1  0.20486533  0.57888867  0.33449143  1.0
  Zn  Zn605  1  0.20486533  0.91222200  0.33449143  1.0
  Zn  Zn606  1  0.53819867  0.24555533  0.33449143  1.0
  Zn  Zn607  1  0.53819867  0.57888867  0.33449143  1.0
  Zn  Zn608  1  0.53819867  0.91222200  0.33449143  1.0
  Zn  Zn609  1  0.87153200  0.24555533  0.33449143  1.0
  Zn  Zn610  1  0.87153200  0.57888867  0.33449143  1.0
  Zn  Zn611  1  0.87153200  0.91222200  0.33449143  1.0
  Zn  Zn612  1  0.08777800  0.12846800  0.29199486  1.0
  Zn  Zn613  1  0.08777800  0.46180133  0.29199486  1.0
  Zn  Zn614  1  0.08777800  0.79513467  0.29199486  1.0
  Zn  Zn615  1  0.42111133  0.12846800  0.29199486  1.0
  Zn  Zn616  1  0.42111133  0.46180133  0.29199486  1.0
  Zn  Zn617  1  0.42111133  0.79513467  0.29199486  1.0
  Zn  Zn618  1  0.75444467  0.12846800  0.29199486  1.0
  Zn  Zn619  1  0.75444467  0.46180133  0.29199486  1.0
  Zn  Zn620  1  0.75444467  0.79513467  0.29199486  1.0
  Zn  Zn621  1  0.24555533  0.21624600  0.36723314  1.0
  Zn  Zn622  1  0.24555533  0.54957933  0.36723314  1.0
  Zn  Zn623  1  0.24555533  0.88291267  0.36723314  1.0
  Zn  Zn624  1  0.57888867  0.21624600  0.36723314  1.0
  Zn  Zn625  1  0.57888867  0.54957933  0.36723314  1.0
  Zn  Zn626  1  0.57888867  0.88291267  0.36723314  1.0
  Zn  Zn627  1  0.91222200  0.21624600  0.36723314  1.0
  Zn  Zn628  1  0.91222200  0.54957933  0.36723314  1.0
  Zn  Zn629  1  0.91222200  0.88291267  0.36723314  1.0
  Zn  Zn630  1  0.00000000  0.21624600  0.36723314  1.0
  Zn  Zn631  1  0.00000000  0.54957933  0.36723314  1.0
  Zn  Zn632  1  0.00000000  0.88291267  0.36723314  1.0
  Zn  Zn633  1  0.33333333  0.21624600  0.36723314  1.0
  Zn  Zn634  1  0.33333333  0.54957933  0.36723314  1.0
  Zn  Zn635  1  0.33333333  0.88291267  0.36723314  1.0
  Zn  Zn636  1  0.66666667  0.21624600  0.36723314  1.0
  Zn  Zn637  1  0.66666667  0.54957933  0.36723314  1.0
  Zn  Zn638  1  0.66666667  0.88291267  0.36723314  1.0
  Zn  Zn639  1  0.21624600  0.20486533  0.29199486  1.0
  Zn  Zn640  1  0.21624600  0.53819867  0.29199486  1.0
  Zn  Zn641  1  0.21624600  0.87153200  0.29199486  1.0
  Zn  Zn642  1  0.54957933  0.20486533  0.29199486  1.0
  Zn  Zn643  1  0.54957933  0.53819867  0.29199486  1.0
  Zn  Zn644  1  0.54957933  0.87153200  0.29199486  1.0
  Zn  Zn645  1  0.88291267  0.20486533  0.29199486  1.0
  Zn  Zn646  1  0.88291267  0.53819867  0.29199486  1.0
  Zn  Zn647  1  0.88291267  0.87153200  0.29199486  1.0
  Zn  Zn648  1  0.21624600  0.11708733  0.36723314  1.0
  Zn  Zn649  1  0.21624600  0.45042067  0.36723314  1.0
  Zn  Zn650  1  0.21624600  0.78375400  0.36723314  1.0
  Zn  Zn651  1  0.54957933  0.11708733  0.36723314  1.0
  Zn  Zn652  1  0.54957933  0.45042067  0.36723314  1.0
  Zn  Zn653  1  0.54957933  0.78375400  0.36723314  1.0
  Zn  Zn654  1  0.88291267  0.11708733  0.36723314  1.0
  Zn  Zn655  1  0.88291267  0.45042067  0.36723314  1.0
  Zn  Zn656  1  0.88291267  0.78375400  0.36723314  1.0
  Zn  Zn657  1  0.12846800  0.11708733  0.36723314  1.0
  Zn  Zn658  1  0.12846800  0.45042067  0.36723314  1.0
  Zn  Zn659  1  0.12846800  0.78375400  0.36723314  1.0
  Zn  Zn660  1  0.46180133  0.11708733  0.36723314  1.0
  Zn  Zn661  1  0.46180133  0.45042067  0.36723314  1.0
  Zn  Zn662  1  0.46180133  0.78375400  0.36723314  1.0
  Zn  Zn663  1  0.79513467  0.11708733  0.36723314  1.0
  Zn  Zn664  1  0.79513467  0.45042067  0.36723314  1.0
  Zn  Zn665  1  0.79513467  0.78375400  0.36723314  1.0
  Ni  Ni666  1  0.00000000  0.00000000  0.32823171  1.0
  Ni  Ni667  1  0.00000000  0.33333333  0.32823171  1.0
  Ni  Ni668  1  0.00000000  0.66666667  0.32823171  1.0
  Ni  Ni669  1  0.33333333  0.00000000  0.32823171  1.0
  Ni  Ni670  1  0.33333333  0.33333333  0.32823171  1.0
  Ni  Ni671  1  0.33333333  0.66666667  0.32823171  1.0
  Ni  Ni672  1  0.66666667  0.00000000  0.32823171  1.0
  Ni  Ni673  1  0.66666667  0.33333333  0.32823171  1.0
  Ni  Ni674  1  0.66666667  0.66666667  0.32823171  1.0
  Ni  Ni675  1  0.21947133  0.00000000  0.32823171  1.0
  Ni  Ni676  1  0.21947133  0.33333333  0.32823171  1.0
  Ni  Ni677  1  0.21947133  0.66666667  0.32823171  1.0
  Ni  Ni678  1  0.55280467  0.00000000  0.32823171  1.0
  Ni  Ni679  1  0.55280467  0.33333333  0.32823171  1.0
  Ni  Ni680  1  0.55280467  0.66666667  0.32823171  1.0
  Ni  Ni681  1  0.88613800  0.00000000  0.32823171  1.0
  Ni  Ni682  1  0.88613800  0.33333333  0.32823171  1.0
  Ni  Ni683  1  0.88613800  0.66666667  0.32823171  1.0
  Ni  Ni684  1  0.00000000  0.11386200  0.37349286  1.0
  Ni  Ni685  1  0.00000000  0.44719533  0.37349286  1.0
  Ni  Ni686  1  0.00000000  0.78052867  0.37349286  1.0
  Ni  Ni687  1  0.33333333  0.11386200  0.37349286  1.0
  Ni  Ni688  1  0.33333333  0.44719533  0.37349286  1.0
  Ni  Ni689  1  0.33333333  0.78052867  0.37349286  1.0
  Ni  Ni690  1  0.66666667  0.11386200  0.37349286  1.0
  Ni  Ni691  1  0.66666667  0.44719533  0.37349286  1.0
  Ni  Ni692  1  0.66666667  0.78052867  0.37349286  1.0
  Ni  Ni693  1  0.11386200  0.21947133  0.37349286  1.0
  Ni  Ni694  1  0.11386200  0.55280467  0.37349286  1.0
  Ni  Ni695  1  0.11386200  0.88613800  0.37349286  1.0
  Ni  Ni696  1  0.44719533  0.21947133  0.37349286  1.0
  Ni  Ni697  1  0.44719533  0.55280467  0.37349286  1.0
  Ni  Ni698  1  0.44719533  0.88613800  0.37349286  1.0
  Ni  Ni699  1  0.78052867  0.21947133  0.37349286  1.0
  Ni  Ni700  1  0.78052867  0.55280467  0.37349286  1.0
  Ni  Ni701  1  0.78052867  0.88613800  0.37349286  1.0
