# generated using pymatgen
data_Zn11Ni2
_symmetry_space_group_name_H-M   'P 1'
_cell_length_a   23.28992940
_cell_length_b   23.28992940
_cell_length_c   38.81654900
_cell_angle_alpha   109.47122063
_cell_angle_beta   109.47122063
_cell_angle_gamma   109.47122063
_symmetry_Int_Tables_number   1
_chemical_formula_structural   Zn11Ni2
_chemical_formula_sum   'Zn396 Ni72'
_cell_volume   16208.07266394
_cell_formula_units_Z   36
loop_
 _symmetry_equiv_pos_site_id
 _symmetry_equiv_pos_as_xyz
  1  'x, y, z'
loop_
 _atom_site_type_symbol
 _atom_site_label
 _atom_site_symmetry_multiplicity
 _atom_site_fract_x
 _atom_site_fract_y
 _atom_site_fract_z
 _atom_site_occupancy
  Zn  Zn0  1  0.00000000  0.00000000  0.02101770  1.0
  Zn  Zn1  1  0.00000000  0.33333333  0.02101770  1.0
  Zn  Zn2  1  0.00000000  0.66666667  0.02101770  1.0
  Zn  Zn3  1  0.33333333  0.00000000  0.02101770  1.0
  Zn  Zn4  1  0.33333333  0.33333333  0.02101770  1.0
  Zn  Zn5  1  0.33333333  0.66666667  0.02101770  1.0
  Zn  Zn6  1  0.66666667  0.00000000  0.02101770  1.0
  Zn  Zn7  1  0.66666667  0.33333333  0.02101770  1.0
  Zn  Zn8  1  0.66666667  0.66666667  0.02101770  1.0
  Zn  Zn9  1  0.07005900  0.00000000  0.17898230  1.0
  Zn  Zn10  1  0.07005900  0.33333333  0.17898230  1.0
  Zn  Zn11  1  0.07005900  0.66666667  0.17898230  1.0
  Zn  Zn12  1  0.40339233  0.00000000  0.17898230  1.0
  Zn  Zn13  1  0.40339233  0.33333333  0.17898230  1.0
  Zn  Zn14  1  0.40339233  0.66666667  0.17898230  1.0
  Zn  Zn15  1  0.73672567  0.00000000  0.17898230  1.0
  Zn  Zn16  1  0.73672567  0.33333333  0.17898230  1.0
  Zn  Zn17  1  0.73672567  0.66666667  0.17898230  1.0
  Zn  Zn18  1  0.00000000  0.07005900  0.17898230  1.0
  Zn  Zn19  1  0.00000000  0.40339233  0.17898230  1.0
  Zn  Zn20  1  0.00000000  0.73672567  0.17898230  1.0
  Zn  Zn21  1  0.33333333  0.07005900  0.17898230  1.0
  Zn  Zn22  1  0.33333333  0.40339233  0.17898230  1.0
  Zn  Zn23  1  0.33333333  0.73672567  0.17898230  1.0
  Zn  Zn24  1  0.66666667  0.07005900  0.17898230  1.0
  Zn  Zn25  1  0.66666667  0.40339233  0.17898230  1.0
  Zn  Zn26  1  0.66666667  0.73672567  0.17898230  1.0
  Zn  Zn27  1  0.26327433  0.26327433  0.13694690  1.0
  Zn  Zn28  1  0.26327433  0.59660767  0.13694690  1.0
  Zn  Zn29  1  0.26327433  0.92994100  0.13694690  1.0
  Zn  Zn30  1  0.59660767  0.26327433  0.13694690  1.0
  Zn  Zn31  1  0.59660767  0.59660767  0.13694690  1.0
  Zn  Zn32  1  0.59660767  0.92994100  0.13694690  1.0
  Zn  Zn33  1  0.92994100  0.26327433  0.13694690  1.0
  Zn  Zn34  1  0.92994100  0.59660767  0.13694690  1.0
  Zn  Zn35  1  0.92994100  0.92994100  0.13694690  1.0
  Zn  Zn36  1  0.21469300  0.21469300  0.17898230  1.0
  Zn  Zn37  1  0.21469300  0.54802633  0.17898230  1.0
  Zn  Zn38  1  0.21469300  0.88135967  0.17898230  1.0
  Zn  Zn39  1  0.54802633  0.21469300  0.17898230  1.0
  Zn  Zn40  1  0.54802633  0.54802633  0.17898230  1.0
  Zn  Zn41  1  0.54802633  0.88135967  0.17898230  1.0
  Zn  Zn42  1  0.88135967  0.21469300  0.17898230  1.0
  Zn  Zn43  1  0.88135967  0.54802633  0.17898230  1.0
  Zn  Zn44  1  0.88135967  0.88135967  0.17898230  1.0
  Zn  Zn45  1  0.00000000  0.11864033  0.05016650  1.0
  Zn  Zn46  1  0.00000000  0.45197367  0.05016650  1.0
  Zn  Zn47  1  0.00000000  0.78530700  0.05016650  1.0
  Zn  Zn48  1  0.33333333  0.11864033  0.05016650  1.0
  Zn  Zn49  1  0.33333333  0.45197367  0.05016650  1.0
  Zn  Zn50  1  0.33333333  0.78530700  0.05016650  1.0
  Zn  Zn51  1  0.66666667  0.11864033  0.05016650  1.0
  Zn  Zn52  1  0.66666667  0.45197367  0.05016650  1.0
  Zn  Zn53  1  0.66666667  0.78530700  0.05016650  1.0
  Zn  Zn54  1  0.11864033  0.00000000  0.05016650  1.0
  Zn  Zn55  1  0.11864033  0.33333333  0.05016650  1.0
  Zn  Zn56  1  0.11864033  0.66666667  0.05016650  1.0
  Zn  Zn57  1  0.45197367  0.00000000  0.05016650  1.0
  Zn  Zn58  1  0.45197367  0.33333333  0.05016650  1.0
  Zn  Zn59  1  0.45197367  0.66666667  0.05016650  1.0
  Zn  Zn60  1  0.78530700  0.00000000  0.05016650  1.0
  Zn  Zn61  1  0.78530700  0.33333333  0.05016650  1.0
  Zn  Zn62  1  0.78530700  0.66666667  0.05016650  1.0
  Zn  Zn63  1  0.11864033  0.11864033  0.17898230  1.0
  Zn  Zn64  1  0.11864033  0.45197367  0.17898230  1.0
  Zn  Zn65  1  0.11864033  0.78530700  0.17898230  1.0
  Zn  Zn66  1  0.45197367  0.11864033  0.17898230  1.0
  Zn  Zn67  1  0.45197367  0.45197367  0.17898230  1.0
  Zn  Zn68  1  0.45197367  0.78530700  0.17898230  1.0
  Zn  Zn69  1  0.78530700  0.11864033  0.17898230  1.0
  Zn  Zn70  1  0.78530700  0.45197367  0.17898230  1.0
  Zn  Zn71  1  0.78530700  0.78530700  0.17898230  1.0
  Zn  Zn72  1  0.00000000  0.21469300  0.10779810  1.0
  Zn  Zn73  1  0.00000000  0.54802633  0.10779810  1.0
  Zn  Zn74  1  0.00000000  0.88135967  0.10779810  1.0
  Zn  Zn75  1  0.33333333  0.21469300  0.10779810  1.0
  Zn  Zn76  1  0.33333333  0.54802633  0.10779810  1.0
  Zn  Zn77  1  0.33333333  0.88135967  0.10779810  1.0
  Zn  Zn78  1  0.66666667  0.21469300  0.10779810  1.0
  Zn  Zn79  1  0.66666667  0.54802633  0.10779810  1.0
  Zn  Zn80  1  0.66666667  0.88135967  0.10779810  1.0
  Zn  Zn81  1  0.21469300  0.00000000  0.10779810  1.0
  Zn  Zn82  1  0.21469300  0.33333333  0.10779810  1.0
  Zn  Zn83  1  0.21469300  0.66666667  0.10779810  1.0
  Zn  Zn84  1  0.54802633  0.00000000  0.10779810  1.0
  Zn  Zn85  1  0.54802633  0.33333333  0.10779810  1.0
  Zn  Zn86  1  0.54802633  0.66666667  0.10779810  1.0
  Zn  Zn87  1  0.88135967  0.00000000  0.10779810  1.0
  Zn  Zn88  1  0.88135967  0.33333333  0.10779810  1.0
  Zn  Zn89  1  0.88135967  0.66666667  0.10779810  1.0
  Zn  Zn90  1  0.24555533  0.00000000  0.04923470  1.0
  Zn  Zn91  1  0.24555533  0.33333333  0.04923470  1.0
  Zn  Zn92  1  0.24555533  0.66666667  0.04923470  1.0
  Zn  Zn93  1  0.57888867  0.00000000  0.04923470  1.0
  Zn  Zn94  1  0.57888867  0.33333333  0.04923470  1.0
  Zn  Zn95  1  0.57888867  0.66666667  0.04923470  1.0
  Zn  Zn96  1  0.91222200  0.00000000  0.04923470  1.0
  Zn  Zn97  1  0.91222200  0.33333333  0.04923470  1.0
  Zn  Zn98  1  0.91222200  0.66666667  0.04923470  1.0
  Zn  Zn99  1  0.08777800  0.08777800  0.10190150  1.0
  Zn  Zn100  1  0.08777800  0.42111133  0.10190150  1.0
  Zn  Zn101  1  0.08777800  0.75444467  0.10190150  1.0
  Zn  Zn102  1  0.42111133  0.08777800  0.10190150  1.0
  Zn  Zn103  1  0.42111133  0.42111133  0.10190150  1.0
  Zn  Zn104  1  0.42111133  0.75444467  0.10190150  1.0
  Zn  Zn105  1  0.75444467  0.08777800  0.10190150  1.0
  Zn  Zn106  1  0.75444467  0.42111133  0.10190150  1.0
  Zn  Zn107  1  0.75444467  0.75444467  0.10190150  1.0
  Zn  Zn108  1  0.00000000  0.24555533  0.04923470  1.0
  Zn  Zn109  1  0.00000000  0.57888867  0.04923470  1.0
  Zn  Zn110  1  0.00000000  0.91222200  0.04923470  1.0
  Zn  Zn111  1  0.33333333  0.24555533  0.04923470  1.0
  Zn  Zn112  1  0.33333333  0.57888867  0.04923470  1.0
  Zn  Zn113  1  0.33333333  0.91222200  0.04923470  1.0
  Zn  Zn114  1  0.66666667  0.24555533  0.04923470  1.0
  Zn  Zn115  1  0.66666667  0.57888867  0.04923470  1.0
  Zn  Zn116  1  0.66666667  0.91222200  0.04923470  1.0
  Zn  Zn117  1  0.11708733  0.00000000  0.12631550  1.0
  Zn  Zn118  1  0.11708733  0.33333333  0.12631550  1.0
  Zn  Zn119  1  0.11708733  0.66666667  0.12631550  1.0
  Zn  Zn120  1  0.45042067  0.00000000  0.12631550  1.0
  Zn  Zn121  1  0.45042067  0.33333333  0.12631550  1.0
  Zn  Zn122  1  0.45042067  0.66666667  0.12631550  1.0
  Zn  Zn123  1  0.78375400  0.00000000  0.12631550  1.0
  Zn  Zn124  1  0.78375400  0.33333333  0.12631550  1.0
  Zn  Zn125  1  0.78375400  0.66666667  0.12631550  1.0
  Zn  Zn126  1  0.11708733  0.24555533  0.17898230  1.0
  Zn  Zn127  1  0.11708733  0.57888867  0.17898230  1.0
  Zn  Zn128  1  0.11708733  0.91222200  0.17898230  1.0
  Zn  Zn129  1  0.45042067  0.24555533  0.17898230  1.0
  Zn  Zn130  1  0.45042067  0.57888867  0.17898230  1.0
  Zn  Zn131  1  0.45042067  0.91222200  0.17898230  1.0
  Zn  Zn132  1  0.78375400  0.24555533  0.17898230  1.0
  Zn  Zn133  1  0.78375400  0.57888867  0.17898230  1.0
  Zn  Zn134  1  0.78375400  0.91222200  0.17898230  1.0
  Zn  Zn135  1  0.20486533  0.08777800  0.03164910  1.0
  Zn  Zn136  1  0.20486533  0.42111133  0.03164910  1.0
  Zn  Zn137  1  0.20486533  0.75444467  0.03164910  1.0
  Zn  Zn138  1  0.53819867  0.08777800  0.03164910  1.0
  Zn  Zn139  1  0.53819867  0.42111133  0.03164910  1.0
  Zn  Zn140  1  0.53819867  0.75444467  0.03164910  1.0
  Zn  Zn141  1  0.87153200  0.08777800  0.03164910  1.0
  Zn  Zn142  1  0.87153200  0.42111133  0.03164910  1.0
  Zn  Zn143  1  0.87153200  0.75444467  0.03164910  1.0
  Zn  Zn144  1  0.08777800  0.20486533  0.03164910  1.0
  Zn  Zn145  1  0.08777800  0.53819867  0.03164910  1.0
  Zn  Zn146  1  0.08777800  0.87153200  0.03164910  1.0
  Zn  Zn147  1  0.42111133  0.20486533  0.03164910  1.0
  Zn  Zn148  1  0.42111133  0.53819867  0.03164910  1.0
  Zn  Zn149  1  0.42111133  0.87153200  0.03164910  1.0
  Zn  Zn150  1  0.75444467  0.20486533  0.03164910  1.0
  Zn  Zn151  1  0.75444467  0.53819867  0.03164910  1.0
  Zn  Zn152  1  0.75444467  0.87153200  0.03164910  1.0
  Zn  Zn153  1  0.24555533  0.11708733  0.17898230  1.0
  Zn  Zn154  1  0.24555533  0.45042067  0.17898230  1.0
  Zn  Zn155  1  0.24555533  0.78375400  0.17898230  1.0
  Zn  Zn156  1  0.57888867  0.11708733  0.17898230  1.0
  Zn  Zn157  1  0.57888867  0.45042067  0.17898230  1.0
  Zn  Zn158  1  0.57888867  0.78375400  0.17898230  1.0
  Zn  Zn159  1  0.91222200  0.11708733  0.17898230  1.0
  Zn  Zn160  1  0.91222200  0.45042067  0.17898230  1.0
  Zn  Zn161  1  0.91222200  0.78375400  0.17898230  1.0
  Zn  Zn162  1  0.00000000  0.11708733  0.12631550  1.0
  Zn  Zn163  1  0.00000000  0.45042067  0.12631550  1.0
  Zn  Zn164  1  0.00000000  0.78375400  0.12631550  1.0
  Zn  Zn165  1  0.33333333  0.11708733  0.12631550  1.0
  Zn  Zn166  1  0.33333333  0.45042067  0.12631550  1.0
  Zn  Zn167  1  0.33333333  0.78375400  0.12631550  1.0
  Zn  Zn168  1  0.66666667  0.11708733  0.12631550  1.0
  Zn  Zn169  1  0.66666667  0.45042067  0.12631550  1.0
  Zn  Zn170  1  0.66666667  0.78375400  0.12631550  1.0
  Zn  Zn171  1  0.21624600  0.12846800  0.10872990  1.0
  Zn  Zn172  1  0.21624600  0.46180133  0.10872990  1.0
  Zn  Zn173  1  0.21624600  0.79513467  0.10872990  1.0
  Zn  Zn174  1  0.54957933  0.12846800  0.10872990  1.0
  Zn  Zn175  1  0.54957933  0.46180133  0.10872990  1.0
  Zn  Zn176  1  0.54957933  0.79513467  0.10872990  1.0
  Zn  Zn177  1  0.88291267  0.12846800  0.10872990  1.0
  Zn  Zn178  1  0.88291267  0.46180133  0.10872990  1.0
  Zn  Zn179  1  0.88291267  0.79513467  0.10872990  1.0
  Zn  Zn180  1  0.21624600  0.21624600  0.05606310  1.0
  Zn  Zn181  1  0.21624600  0.54957933  0.05606310  1.0
  Zn  Zn182  1  0.21624600  0.88291267  0.05606310  1.0
  Zn  Zn183  1  0.54957933  0.21624600  0.05606310  1.0
  Zn  Zn184  1  0.54957933  0.54957933  0.05606310  1.0
  Zn  Zn185  1  0.54957933  0.88291267  0.05606310  1.0
  Zn  Zn186  1  0.88291267  0.21624600  0.05606310  1.0
  Zn  Zn187  1  0.88291267  0.54957933  0.05606310  1.0
  Zn  Zn188  1  0.88291267  0.88291267  0.05606310  1.0
  Zn  Zn189  1  0.12846800  0.21624600  0.10872990  1.0
  Zn  Zn190  1  0.12846800  0.54957933  0.10872990  1.0
  Zn  Zn191  1  0.12846800  0.88291267  0.10872990  1.0
  Zn  Zn192  1  0.46180133  0.21624600  0.10872990  1.0
  Zn  Zn193  1  0.46180133  0.54957933  0.10872990  1.0
  Zn  Zn194  1  0.46180133  0.88291267  0.10872990  1.0
  Zn  Zn195  1  0.79513467  0.21624600  0.10872990  1.0
  Zn  Zn196  1  0.79513467  0.54957933  0.10872990  1.0
  Zn  Zn197  1  0.79513467  0.88291267  0.10872990  1.0
  Ni  Ni198  1  0.00000000  0.00000000  0.11066510  1.0
  Ni  Ni199  1  0.00000000  0.33333333  0.11066510  1.0
  Ni  Ni200  1  0.00000000  0.66666667  0.11066510  1.0
  Ni  Ni201  1  0.33333333  0.00000000  0.11066510  1.0
  Ni  Ni202  1  0.33333333  0.33333333  0.11066510  1.0
  Ni  Ni203  1  0.33333333  0.66666667  0.11066510  1.0
  Ni  Ni204  1  0.66666667  0.00000000  0.11066510  1.0
  Ni  Ni205  1  0.66666667  0.33333333  0.11066510  1.0
  Ni  Ni206  1  0.66666667  0.66666667  0.11066510  1.0
  Ni  Ni207  1  0.21947133  0.00000000  0.17898230  1.0
  Ni  Ni208  1  0.21947133  0.33333333  0.17898230  1.0
  Ni  Ni209  1  0.21947133  0.66666667  0.17898230  1.0
  Ni  Ni210  1  0.55280467  0.00000000  0.17898230  1.0
  Ni  Ni211  1  0.55280467  0.33333333  0.17898230  1.0
  Ni  Ni212  1  0.55280467  0.66666667  0.17898230  1.0
  Ni  Ni213  1  0.88613800  0.00000000  0.17898230  1.0
  Ni  Ni214  1  0.88613800  0.33333333  0.17898230  1.0
  Ni  Ni215  1  0.88613800  0.66666667  0.17898230  1.0
  Ni  Ni216  1  0.00000000  0.21947133  0.17898230  1.0
  Ni  Ni217  1  0.00000000  0.55280467  0.17898230  1.0
  Ni  Ni218  1  0.00000000  0.88613800  0.17898230  1.0
  Ni  Ni219  1  0.33333333  0.21947133  0.17898230  1.0
  Ni  Ni220  1  0.33333333  0.55280467  0.17898230  1.0
  Ni  Ni221  1  0.33333333  0.88613800  0.17898230  1.0
  Ni  Ni222  1  0.66666667  0.21947133  0.17898230  1.0
  Ni  Ni223  1  0.66666667  0.55280467  0.17898230  1.0
  Ni  Ni224  1  0.66666667  0.88613800  0.17898230  1.0
  Ni  Ni225  1  0.11386200  0.11386200  0.04729950  1.0
  Ni  Ni226  1  0.11386200  0.44719533  0.04729950  1.0
  Ni  Ni227  1  0.11386200  0.78052867  0.04729950  1.0
  Ni  Ni228  1  0.44719533  0.11386200  0.04729950  1.0
  Ni  Ni229  1  0.44719533  0.44719533  0.04729950  1.0
  Ni  Ni230  1  0.44719533  0.78052867  0.04729950  1.0
  Ni  Ni231  1  0.78052867  0.11386200  0.04729950  1.0
  Ni  Ni232  1  0.78052867  0.44719533  0.04729950  1.0
  Ni  Ni233  1  0.78052867  0.78052867  0.04729950  1.0
  Zn  Zn234  1  0.00000000  0.00000000  0.22101770  1.0
  Zn  Zn235  1  0.00000000  0.33333333  0.22101770  1.0
  Zn  Zn236  1  0.00000000  0.66666667  0.22101770  1.0
  Zn  Zn237  1  0.33333333  0.00000000  0.22101770  1.0
  Zn  Zn238  1  0.33333333  0.33333333  0.22101770  1.0
  Zn  Zn239  1  0.33333333  0.66666667  0.22101770  1.0
  Zn  Zn240  1  0.66666667  0.00000000  0.22101770  1.0
  Zn  Zn241  1  0.66666667  0.33333333  0.22101770  1.0
  Zn  Zn242  1  0.66666667  0.66666667  0.22101770  1.0
  Zn  Zn243  1  0.07005900  0.00000000  0.37898230  1.0
  Zn  Zn244  1  0.07005900  0.33333333  0.37898230  1.0
  Zn  Zn245  1  0.07005900  0.66666667  0.37898230  1.0
  Zn  Zn246  1  0.40339233  0.00000000  0.37898230  1.0
  Zn  Zn247  1  0.40339233  0.33333333  0.37898230  1.0
  Zn  Zn248  1  0.40339233  0.66666667  0.37898230  1.0
  Zn  Zn249  1  0.73672567  0.00000000  0.37898230  1.0
  Zn  Zn250  1  0.73672567  0.33333333  0.37898230  1.0
  Zn  Zn251  1  0.73672567  0.66666667  0.37898230  1.0
  Zn  Zn252  1  0.00000000  0.07005900  0.37898230  1.0
  Zn  Zn253  1  0.00000000  0.40339233  0.37898230  1.0
  Zn  Zn254  1  0.00000000  0.73672567  0.37898230  1.0
  Zn  Zn255  1  0.33333333  0.07005900  0.37898230  1.0
  Zn  Zn256  1  0.33333333  0.40339233  0.37898230  1.0
  Zn  Zn257  1  0.33333333  0.73672567  0.37898230  1.0
  Zn  Zn258  1  0.66666667  0.07005900  0.37898230  1.0
  Zn  Zn259  1  0.66666667  0.40339233  0.37898230  1.0
  Zn  Zn260  1  0.66666667  0.73672567  0.37898230  1.0
  Zn  Zn261  1  0.26327433  0.26327433  0.33694690  1.0
  Zn  Zn262  1  0.26327433  0.59660767  0.33694690  1.0
  Zn  Zn263  1  0.26327433  0.92994100  0.33694690  1.0
  Zn  Zn264  1  0.59660767  0.26327433  0.33694690  1.0
  Zn  Zn265  1  0.59660767  0.59660767  0.33694690  1.0
  Zn  Zn266  1  0.59660767  0.92994100  0.33694690  1.0
  Zn  Zn267  1  0.92994100  0.26327433  0.33694690  1.0
  Zn  Zn268  1  0.92994100  0.59660767  0.33694690  1.0
  Zn  Zn269  1  0.92994100  0.92994100  0.33694690  1.0
  Zn  Zn270  1  0.21469300  0.21469300  0.37898230  1.0
  Zn  Zn271  1  0.21469300  0.54802633  0.37898230  1.0
  Zn  Zn272  1  0.21469300  0.88135967  0.37898230  1.0
  Zn  Zn273  1  0.54802633  0.21469300  0.37898230  1.0
  Zn  Zn274  1  0.54802633  0.54802633  0.37898230  1.0
  Zn  Zn275  1  0.54802633  0.88135967  0.37898230  1.0
  Zn  Zn276  1  0.88135967  0.21469300  0.37898230  1.0
  Zn  Zn277  1  0.88135967  0.54802633  0.37898230  1.0
  Zn  Zn278  1  0.88135967  0.88135967  0.37898230  1.0
  Zn  Zn279  1  0.00000000  0.11864033  0.25016650  1.0
  Zn  Zn280  1  0.00000000  0.45197367  0.25016650  1.0
  Zn  Zn281  1  0.00000000  0.78530700  0.25016650  1.0
  Zn  Zn282  1  0.33333333  0.11864033  0.25016650  1.0
  Zn  Zn283  1  0.33333333  0.45197367  0.25016650  1.0
  Zn  Zn284  1  0.33333333  0.78530700  0.25016650  1.0
  Zn  Zn285  1  0.66666667  0.11864033  0.25016650  1.0
  Zn  Zn286  1  0.66666667  0.45197367  0.25016650  1.0
  Zn  Zn287  1  0.66666667  0.78530700  0.25016650  1.0
  Zn  Zn288  1  0.11864033  0.00000000  0.25016650  1.0
  Zn  Zn289  1  0.11864033  0.33333333  0.25016650  1.0
  Zn  Zn290  1  0.11864033  0.66666667  0.25016650  1.0
  Zn  Zn291  1  0.45197367  0.00000000  0.25016650  1.0
  Zn  Zn292  1  0.45197367  0.33333333  0.25016650  1.0
  Zn  Zn293  1  0.45197367  0.66666667  0.25016650  1.0
  Zn  Zn294  1  0.78530700  0.00000000  0.25016650  1.0
  Zn  Zn295  1  0.78530700  0.33333333  0.25016650  1.0
  Zn  Zn296  1  0.78530700  0.66666667  0.25016650  1.0
  Zn  Zn297  1  0.11864033  0.11864033  0.37898230  1.0
  Zn  Zn298  1  0.11864033  0.45197367  0.37898230  1.0
  Zn  Zn299  1  0.11864033  0.78530700  0.37898230  1.0
  Zn  Zn300  1  0.45197367  0.11864033  0.37898230  1.0
  Zn  Zn301  1  0.45197367  0.45197367  0.37898230  1.0
  Zn  Zn302  1  0.45197367  0.78530700  0.37898230  1.0
  Zn  Zn303  1  0.78530700  0.11864033  0.37898230  1.0
  Zn  Zn304  1  0.78530700  0.45197367  0.37898230  1.0
  Zn  Zn305  1  0.78530700  0.78530700  0.37898230  1.0
  Zn  Zn306  1  0.00000000  0.21469300  0.30779810  1.0
  Zn  Zn307  1  0.00000000  0.54802633  0.30779810  1.0
  Zn  Zn308  1  0.00000000  0.88135967  0.30779810  1.0
  Zn  Zn309  1  0.33333333  0.21469300  0.30779810  1.0
  Zn  Zn310  1  0.33333333  0.54802633  0.30779810  1.0
  Zn  Zn311  1  0.33333333  0.88135967  0.30779810  1.0
  Zn  Zn312  1  0.66666667  0.21469300  0.30779810  1.0
  Zn  Zn313  1  0.66666667  0.54802633  0.30779810  1.0
  Zn  Zn314  1  0.66666667  0.88135967  0.30779810  1.0
  Zn  Zn315  1  0.21469300  0.00000000  0.30779810  1.0
  Zn  Zn316  1  0.21469300  0.33333333  0.30779810  1.0
  Zn  Zn317  1  0.21469300  0.66666667  0.30779810  1.0
  Zn  Zn318  1  0.54802633  0.00000000  0.30779810  1.0
  Zn  Zn319  1  0.54802633  0.33333333  0.30779810  1.0
  Zn  Zn320  1  0.54802633  0.66666667  0.30779810  1.0
  Zn  Zn321  1  0.88135967  0.00000000  0.30779810  1.0
  Zn  Zn322  1  0.88135967  0.33333333  0.30779810  1.0
  Zn  Zn323  1  0.88135967  0.66666667  0.30779810  1.0
  Zn  Zn324  1  0.24555533  0.00000000  0.24923470  1.0
  Zn  Zn325  1  0.24555533  0.33333333  0.24923470  1.0
  Zn  Zn326  1  0.24555533  0.66666667  0.24923470  1.0
  Zn  Zn327  1  0.57888867  0.00000000  0.24923470  1.0
  Zn  Zn328  1  0.57888867  0.33333333  0.24923470  1.0
  Zn  Zn329  1  0.57888867  0.66666667  0.24923470  1.0
  Zn  Zn330  1  0.91222200  0.00000000  0.24923470  1.0
  Zn  Zn331  1  0.91222200  0.33333333  0.24923470  1.0
  Zn  Zn332  1  0.91222200  0.66666667  0.24923470  1.0
  Zn  Zn333  1  0.08777800  0.08777800  0.30190150  1.0
  Zn  Zn334  1  0.08777800  0.42111133  0.30190150  1.0
  Zn  Zn335  1  0.08777800  0.75444467  0.30190150  1.0
  Zn  Zn336  1  0.42111133  0.08777800  0.30190150  1.0
  Zn  Zn337  1  0.42111133  0.42111133  0.30190150  1.0
  Zn  Zn338  1  0.42111133  0.75444467  0.30190150  1.0
  Zn  Zn339  1  0.75444467  0.08777800  0.30190150  1.0
  Zn  Zn340  1  0.75444467  0.42111133  0.30190150  1.0
  Zn  Zn341  1  0.75444467  0.75444467  0.30190150  1.0
  Zn  Zn342  1  0.00000000  0.24555533  0.24923470  1.0
  Zn  Zn343  1  0.00000000  0.57888867  0.24923470  1.0
  Zn  Zn344  1  0.00000000  0.91222200  0.24923470  1.0
  Zn  Zn345  1  0.33333333  0.24555533  0.24923470  1.0
  Zn  Zn346  1  0.33333333  0.57888867  0.24923470  1.0
  Zn  Zn347  1  0.33333333  0.91222200  0.24923470  1.0
  Zn  Zn348  1  0.66666667  0.24555533  0.24923470  1.0
  Zn  Zn349  1  0.66666667  0.57888867  0.24923470  1.0
  Zn  Zn350  1  0.66666667  0.91222200  0.24923470  1.0
  Zn  Zn351  1  0.11708733  0.00000000  0.32631550  1.0
  Zn  Zn352  1  0.11708733  0.33333333  0.32631550  1.0
  Zn  Zn353  1  0.11708733  0.66666667  0.32631550  1.0
  Zn  Zn354  1  0.45042067  0.00000000  0.32631550  1.0
  Zn  Zn355  1  0.45042067  0.33333333  0.32631550  1.0
  Zn  Zn356  1  0.45042067  0.66666667  0.32631550  1.0
  Zn  Zn357  1  0.78375400  0.00000000  0.32631550  1.0
  Zn  Zn358  1  0.78375400  0.33333333  0.32631550  1.0
  Zn  Zn359  1  0.78375400  0.66666667  0.32631550  1.0
  Zn  Zn360  1  0.11708733  0.24555533  0.37898230  1.0
  Zn  Zn361  1  0.11708733  0.57888867  0.37898230  1.0
  Zn  Zn362  1  0.11708733  0.91222200  0.37898230  1.0
  Zn  Zn363  1  0.45042067  0.24555533  0.37898230  1.0
  Zn  Zn364  1  0.45042067  0.57888867  0.37898230  1.0
  Zn  Zn365  1  0.45042067  0.91222200  0.37898230  1.0
  Zn  Zn366  1  0.78375400  0.24555533  0.37898230  1.0
  Zn  Zn367  1  0.78375400  0.57888867  0.37898230  1.0
  Zn  Zn368  1  0.78375400  0.91222200  0.37898230  1.0
  Zn  Zn369  1  0.20486533  0.08777800  0.23164910  1.0
  Zn  Zn370  1  0.20486533  0.42111133  0.23164910  1.0
  Zn  Zn371  1  0.20486533  0.75444467  0.23164910  1.0
  Zn  Zn372  1  0.53819867  0.08777800  0.23164910  1.0
  Zn  Zn373  1  0.53819867  0.42111133  0.23164910  1.0
  Zn  Zn374  1  0.53819867  0.75444467  0.23164910  1.0
  Zn  Zn375  1  0.87153200  0.08777800  0.23164910  1.0
  Zn  Zn376  1  0.87153200  0.42111133  0.23164910  1.0
  Zn  Zn377  1  0.87153200  0.75444467  0.23164910  1.0
  Zn  Zn378  1  0.08777800  0.20486533  0.23164910  1.0
  Zn  Zn379  1  0.08777800  0.53819867  0.23164910  1.0
  Zn  Zn380  1  0.08777800  0.87153200  0.23164910  1.0
  Zn  Zn381  1  0.42111133  0.20486533  0.23164910  1.0
  Zn  Zn382  1  0.42111133  0.53819867  0.23164910  1.0
  Zn  Zn383  1  0.42111133  0.87153200  0.23164910  1.0
  Zn  Zn384  1  0.75444467  0.20486533  0.23164910  1.0
  Zn  Zn385  1  0.75444467  0.53819867  0.23164910  1.0
  Zn  Zn386  1  0.75444467  0.87153200  0.23164910  1.0
  Zn  Zn387  1  0.24555533  0.11708733  0.37898230  1.0
  Zn  Zn388  1  0.24555533  0.45042067  0.37898230  1.0
  Zn  Zn389  1  0.24555533  0.78375400  0.37898230  1.0
  Zn  Zn390  1  0.57888867  0.11708733  0.37898230  1.0
  Zn  Zn391  1  0.57888867  0.45042067  0.37898230  1.0
  Zn  Zn392  1  0.57888867  0.78375400  0.37898230  1.0
  Zn  Zn393  1  0.91222200  0.11708733  0.37898230  1.0
  Zn  Zn394  1  0.91222200  0.45042067  0.37898230  1.0
  Zn  Zn395  1  0.91222200  0.78375400  0.37898230  1.0
  Zn  Zn396  1  0.00000000  0.11708733  0.32631550  1.0
  Zn  Zn397  1  0.00000000  0.45042067  0.32631550  1.0
  Zn  Zn398  1  0.00000000  0.78375400  0.32631550  1.0
  Zn  Zn399  1  0.33333333  0.11708733  0.32631550  1.0
  Zn  Zn400  1  0.33333333  0.45042067  0.32631550  1.0
  Zn  Zn401  1  0.33333333  0.78375400  0.32631550  1.0
  Zn  Zn402  1  0.66666667  0.11708733  0.32631550  1.0
  Zn  Zn403  1  0.66666667  0.45042067  0.32631550  1.0
  Zn  Zn404  1  0.66666667  0.78375400  0.32631550  1.0
  Zn  Zn405  1  0.21624600  0.12846800  0.30872990  1.0
  Zn  Zn406  1  0.21624600  0.46180133  0.30872990  1.0
  Zn  Zn407  1  0.21624600  0.79513467  0.30872990  1.0
  Zn  Zn408  1  0.54957933  0.12846800  0.30872990  1.0
  Zn  Zn409  1  0.54957933  0.46180133  0.30872990  1.0
  Zn  Zn410  1  0.54957933  0.79513467  0.30872990  1.0
  Zn  Zn411  1  0.88291267  0.12846800  0.30872990  1.0
  Zn  Zn412  1  0.88291267  0.46180133  0.30872990  1.0
  Zn  Zn413  1  0.88291267  0.79513467  0.30872990  1.0
  Zn  Zn414  1  0.21624600  0.21624600  0.25606310  1.0
  Zn  Zn415  1  0.21624600  0.54957933  0.25606310  1.0
  Zn  Zn416  1  0.21624600  0.88291267  0.25606310  1.0
  Zn  Zn417  1  0.54957933  0.21624600  0.25606310  1.0
  Zn  Zn418  1  0.54957933  0.54957933  0.25606310  1.0
  Zn  Zn419  1  0.54957933  0.88291267  0.25606310  1.0
  Zn  Zn420  1  0.88291267  0.21624600  0.25606310  1.0
  Zn  Zn421  1  0.88291267  0.54957933  0.25606310  1.0
  Zn  Zn422  1  0.88291267  0.88291267  0.25606310  1.0
  Zn  Zn423  1  0.12846800  0.21624600  0.30872990  1.0
  Zn  Zn424  1  0.12846800  0.54957933  0.30872990  1.0
  Zn  Zn425  1  0.12846800  0.88291267  0.30872990  1.0
  Zn  Zn426  1  0.46180133  0.21624600  0.30872990  1.0
  Zn  Zn427  1  0.46180133  0.54957933  0.30872990  1.0
  Zn  Zn428  1  0.46180133  0.88291267  0.30872990  1.0
  Zn  Zn429  1  0.79513467  0.21624600  0.30872990  1.0
  Zn  Zn430  1  0.79513467  0.54957933  0.30872990  1.0
  Zn  Zn431  1  0.79513467  0.88291267  0.30872990  1.0
  Ni  Ni432  1  0.00000000  0.00000000  0.31066510  1.0
  Ni  Ni433  1  0.00000000  0.33333333  0.31066510  1.0
  Ni  Ni434  1  0.00000000  0.66666667  0.31066510  1.0
  Ni  Ni435  1  0.33333333  0.00000000  0.31066510  1.0
  Ni  Ni436  1  0.33333333  0.33333333  0.31066510  1.0
  Ni  Ni437  1  0.33333333  0.66666667  0.31066510  1.0
  Ni  Ni438  1  0.66666667  0.00000000  0.31066510  1.0
  Ni  Ni439  1  0.66666667  0.33333333  0.31066510  1.0
  Ni  Ni440  1  0.66666667  0.66666667  0.31066510  1.0
  Ni  Ni441  1  0.21947133  0.00000000  0.37898230  1.0
  Ni  Ni442  1  0.21947133  0.33333333  0.37898230  1.0
  Ni  Ni443  1  0.21947133  0.66666667  0.37898230  1.0
  Ni  Ni444  1  0.55280467  0.00000000  0.37898230  1.0
  Ni  Ni445  1  0.55280467  0.33333333  0.37898230  1.0
  Ni  Ni446  1  0.55280467  0.66666667  0.37898230  1.0
  Ni  Ni447  1  0.88613800  0.00000000  0.37898230  1.0
  Ni  Ni448  1  0.88613800  0.33333333  0.37898230  1.0
  Ni  Ni449  1  0.88613800  0.66666667  0.37898230  1.0
  Ni  Ni450  1  0.00000000  0.21947133  0.37898230  1.0
  Ni  Ni451  1  0.00000000  0.55280467  0.37898230  1.0
  Ni  Ni452  1  0.00000000  0.88613800  0.37898230  1.0
  Ni  Ni453  1  0.33333333  0.21947133  0.37898230  1.0
  Ni  Ni454  1  0.33333333  0.55280467  0.37898230  1.0
  Ni  Ni455  1  0.33333333  0.88613800  0.37898230  1.0
  Ni  Ni456  1  0.66666667  0.21947133  0.37898230  1.0
  Ni  Ni457  1  0.66666667  0.55280467  0.37898230  1.0
  Ni  Ni458  1  0.66666667  0.88613800  0.37898230  1.0
  Ni  Ni459  1  0.11386200  0.11386200  0.24729950  1.0
  Ni  Ni460  1  0.11386200  0.44719533  0.24729950  1.0
  Ni  Ni461  1  0.11386200  0.78052867  0.24729950  1.0
  Ni  Ni462  1  0.44719533  0.11386200  0.24729950  1.0
  Ni  Ni463  1  0.44719533  0.44719533  0.24729950  1.0
  Ni  Ni464  1  0.44719533  0.78052867  0.24729950  1.0
  Ni  Ni465  1  0.78052867  0.11386200  0.24729950  1.0
  Ni  Ni466  1  0.78052867  0.44719533  0.24729950  1.0
  Ni  Ni467  1  0.78052867  0.78052867  0.24729950  1.0
