# generated using pymatgen
data_Zn22Ni3
_symmetry_space_group_name_H-M   'P 1'
_cell_length_a   22.31277601
_cell_length_b   27.03661814
_cell_length_c   38.23933655
_cell_angle_alpha   79.19915176
_cell_angle_beta   119.09457746
_cell_angle_gamma   65.62922118
_symmetry_Int_Tables_number   1
_chemical_formula_structural   Zn22Ni3
_chemical_formula_sum   'Zn396 Ni54'
_cell_volume   16031.55747249
_cell_formula_units_Z   18
loop_
 _symmetry_equiv_pos_site_id
 _symmetry_equiv_pos_as_xyz
  1  'x, y, z'
loop_
 _atom_site_type_symbol
 _atom_site_label
 _atom_site_symmetry_multiplicity
 _atom_site_fract_x
 _atom_site_fract_y
 _atom_site_fract_z
 _atom_site_occupancy
  Zn  Zn0  1  0.11486100  0.10368767  0.11868610  1.0
  Zn  Zn1  1  0.11486100  0.43702100  0.11868610  1.0
  Zn  Zn2  1  0.11486100  0.77035433  0.11868610  1.0
  Zn  Zn3  1  0.44819433  0.10368767  0.11868610  1.0
  Zn  Zn4  1  0.44819433  0.43702100  0.11868610  1.0
  Zn  Zn5  1  0.44819433  0.77035433  0.11868610  1.0
  Zn  Zn6  1  0.78152767  0.10368767  0.11868610  1.0
  Zn  Zn7  1  0.78152767  0.43702100  0.11868610  1.0
  Zn  Zn8  1  0.78152767  0.77035433  0.11868610  1.0
  Zn  Zn9  1  0.21847233  0.22964567  0.07673410  1.0
  Zn  Zn10  1  0.21847233  0.56297900  0.07673410  1.0
  Zn  Zn11  1  0.21847233  0.89631233  0.07673410  1.0
  Zn  Zn12  1  0.55180567  0.22964567  0.07673410  1.0
  Zn  Zn13  1  0.55180567  0.56297900  0.07673410  1.0
  Zn  Zn14  1  0.55180567  0.89631233  0.07673410  1.0
  Zn  Zn15  1  0.88513900  0.22964567  0.07673410  1.0
  Zn  Zn16  1  0.88513900  0.56297900  0.07673410  1.0
  Zn  Zn17  1  0.88513900  0.89631233  0.07673410  1.0
  Zn  Zn18  1  0.01692200  0.22964567  0.07673410  1.0
  Zn  Zn19  1  0.01692200  0.56297900  0.07673410  1.0
  Zn  Zn20  1  0.01692200  0.89631233  0.07673410  1.0
  Zn  Zn21  1  0.35025533  0.22964567  0.07673410  1.0
  Zn  Zn22  1  0.35025533  0.56297900  0.07673410  1.0
  Zn  Zn23  1  0.35025533  0.89631233  0.07673410  1.0
  Zn  Zn24  1  0.68358867  0.22964567  0.07673410  1.0
  Zn  Zn25  1  0.68358867  0.56297900  0.07673410  1.0
  Zn  Zn26  1  0.68358867  0.89631233  0.07673410  1.0
  Zn  Zn27  1  0.31641133  0.10368767  0.11868610  1.0
  Zn  Zn28  1  0.31641133  0.43702100  0.11868610  1.0
  Zn  Zn29  1  0.31641133  0.77035433  0.11868610  1.0
  Zn  Zn30  1  0.64974467  0.10368767  0.11868610  1.0
  Zn  Zn31  1  0.64974467  0.43702100  0.11868610  1.0
  Zn  Zn32  1  0.64974467  0.77035433  0.11868610  1.0
  Zn  Zn33  1  0.98307800  0.10368767  0.11868610  1.0
  Zn  Zn34  1  0.98307800  0.43702100  0.11868610  1.0
  Zn  Zn35  1  0.98307800  0.77035433  0.11868610  1.0
  Zn  Zn36  1  0.10747967  0.00000000  0.19771010  1.0
  Zn  Zn37  1  0.10747967  0.33333333  0.19771010  1.0
  Zn  Zn38  1  0.10747967  0.66666667  0.19771010  1.0
  Zn  Zn39  1  0.44081300  0.00000000  0.19771010  1.0
  Zn  Zn40  1  0.44081300  0.33333333  0.19771010  1.0
  Zn  Zn41  1  0.44081300  0.66666667  0.19771010  1.0
  Zn  Zn42  1  0.77414633  0.00000000  0.19771010  1.0
  Zn  Zn43  1  0.77414633  0.33333333  0.19771010  1.0
  Zn  Zn44  1  0.77414633  0.66666667  0.19771010  1.0
  Zn  Zn45  1  0.22585367  0.00000000  0.19771010  1.0
  Zn  Zn46  1  0.22585367  0.33333333  0.19771010  1.0
  Zn  Zn47  1  0.22585367  0.66666667  0.19771010  1.0
  Zn  Zn48  1  0.55918700  0.00000000  0.19771010  1.0
  Zn  Zn49  1  0.55918700  0.33333333  0.19771010  1.0
  Zn  Zn50  1  0.55918700  0.66666667  0.19771010  1.0
  Zn  Zn51  1  0.89252033  0.00000000  0.19771010  1.0
  Zn  Zn52  1  0.89252033  0.33333333  0.19771010  1.0
  Zn  Zn53  1  0.89252033  0.66666667  0.19771010  1.0
  Zn  Zn54  1  0.12838667  0.26142467  0.10862890  1.0
  Zn  Zn55  1  0.12838667  0.59475800  0.10862890  1.0
  Zn  Zn56  1  0.12838667  0.92809133  0.10862890  1.0
  Zn  Zn57  1  0.46172000  0.26142467  0.10862890  1.0
  Zn  Zn58  1  0.46172000  0.59475800  0.10862890  1.0
  Zn  Zn59  1  0.46172000  0.92809133  0.10862890  1.0
  Zn  Zn60  1  0.79505333  0.26142467  0.10862890  1.0
  Zn  Zn61  1  0.79505333  0.59475800  0.10862890  1.0
  Zn  Zn62  1  0.79505333  0.92809133  0.10862890  1.0
  Zn  Zn63  1  0.20494667  0.07190867  0.08679130  1.0
  Zn  Zn64  1  0.20494667  0.40524200  0.08679130  1.0
  Zn  Zn65  1  0.20494667  0.73857533  0.08679130  1.0
  Zn  Zn66  1  0.53828000  0.07190867  0.08679130  1.0
  Zn  Zn67  1  0.53828000  0.40524200  0.08679130  1.0
  Zn  Zn68  1  0.53828000  0.73857533  0.08679130  1.0
  Zn  Zn69  1  0.87161333  0.07190867  0.08679130  1.0
  Zn  Zn70  1  0.87161333  0.40524200  0.08679130  1.0
  Zn  Zn71  1  0.87161333  0.73857533  0.08679130  1.0
  Zn  Zn72  1  0.28249533  0.05875933  0.17196010  1.0
  Zn  Zn73  1  0.28249533  0.39209267  0.17196010  1.0
  Zn  Zn74  1  0.28249533  0.72542600  0.17196010  1.0
  Zn  Zn75  1  0.61582867  0.05875933  0.17196010  1.0
  Zn  Zn76  1  0.61582867  0.39209267  0.17196010  1.0
  Zn  Zn77  1  0.61582867  0.72542600  0.17196010  1.0
  Zn  Zn78  1  0.94916200  0.05875933  0.17196010  1.0
  Zn  Zn79  1  0.94916200  0.39209267  0.17196010  1.0
  Zn  Zn80  1  0.94916200  0.72542600  0.17196010  1.0
  Zn  Zn81  1  0.05083800  0.27457400  0.02346010  1.0
  Zn  Zn82  1  0.05083800  0.60790733  0.02346010  1.0
  Zn  Zn83  1  0.05083800  0.94124067  0.02346010  1.0
  Zn  Zn84  1  0.38417133  0.27457400  0.02346010  1.0
  Zn  Zn85  1  0.38417133  0.60790733  0.02346010  1.0
  Zn  Zn86  1  0.38417133  0.94124067  0.02346010  1.0
  Zn  Zn87  1  0.71750467  0.27457400  0.02346010  1.0
  Zn  Zn88  1  0.71750467  0.60790733  0.02346010  1.0
  Zn  Zn89  1  0.71750467  0.94124067  0.02346010  1.0
  Zn  Zn90  1  0.12505567  0.09085500  0.00228990  1.0
  Zn  Zn91  1  0.12505567  0.42418833  0.00228990  1.0
  Zn  Zn92  1  0.12505567  0.75752167  0.00228990  1.0
  Zn  Zn93  1  0.45838900  0.09085500  0.00228990  1.0
  Zn  Zn94  1  0.45838900  0.42418833  0.00228990  1.0
  Zn  Zn95  1  0.45838900  0.75752167  0.00228990  1.0
  Zn  Zn96  1  0.79172233  0.09085500  0.00228990  1.0
  Zn  Zn97  1  0.79172233  0.42418833  0.00228990  1.0
  Zn  Zn98  1  0.79172233  0.75752167  0.00228990  1.0
  Zn  Zn99  1  0.20827767  0.24247833  0.19313030  1.0
  Zn  Zn100  1  0.20827767  0.57581167  0.19313030  1.0
  Zn  Zn101  1  0.20827767  0.90914500  0.19313030  1.0
  Zn  Zn102  1  0.54161100  0.24247833  0.19313030  1.0
  Zn  Zn103  1  0.54161100  0.57581167  0.19313030  1.0
  Zn  Zn104  1  0.54161100  0.90914500  0.19313030  1.0
  Zn  Zn105  1  0.87494433  0.24247833  0.19313030  1.0
  Zn  Zn106  1  0.87494433  0.57581167  0.19313030  1.0
  Zn  Zn107  1  0.87494433  0.90914500  0.19313030  1.0
  Zn  Zn108  1  0.31252233  0.12548433  0.04802750  1.0
  Zn  Zn109  1  0.31252233  0.45881767  0.04802750  1.0
  Zn  Zn110  1  0.31252233  0.79215100  0.04802750  1.0
  Zn  Zn111  1  0.64585567  0.12548433  0.04802750  1.0
  Zn  Zn112  1  0.64585567  0.45881767  0.04802750  1.0
  Zn  Zn113  1  0.64585567  0.79215100  0.04802750  1.0
  Zn  Zn114  1  0.97918900  0.12548433  0.04802750  1.0
  Zn  Zn115  1  0.97918900  0.45881767  0.04802750  1.0
  Zn  Zn116  1  0.97918900  0.79215100  0.04802750  1.0
  Zn  Zn117  1  0.02081100  0.20784900  0.14739270  1.0
  Zn  Zn118  1  0.02081100  0.54118233  0.14739270  1.0
  Zn  Zn119  1  0.02081100  0.87451567  0.14739270  1.0
  Zn  Zn120  1  0.35414433  0.20784900  0.14739270  1.0
  Zn  Zn121  1  0.35414433  0.54118233  0.14739270  1.0
  Zn  Zn122  1  0.35414433  0.87451567  0.14739270  1.0
  Zn  Zn123  1  0.68747767  0.20784900  0.14739270  1.0
  Zn  Zn124  1  0.68747767  0.54118233  0.14739270  1.0
  Zn  Zn125  1  0.68747767  0.87451567  0.14739270  1.0
  Zn  Zn126  1  0.29184600  0.15406933  0.16807210  1.0
  Zn  Zn127  1  0.29184600  0.48740267  0.16807210  1.0
  Zn  Zn128  1  0.29184600  0.82073600  0.16807210  1.0
  Zn  Zn129  1  0.62517933  0.15406933  0.16807210  1.0
  Zn  Zn130  1  0.62517933  0.48740267  0.16807210  1.0
  Zn  Zn131  1  0.62517933  0.82073600  0.16807210  1.0
  Zn  Zn132  1  0.95851267  0.15406933  0.16807210  1.0
  Zn  Zn133  1  0.95851267  0.48740267  0.16807210  1.0
  Zn  Zn134  1  0.95851267  0.82073600  0.16807210  1.0
  Zn  Zn135  1  0.04148733  0.17926400  0.02734810  1.0
  Zn  Zn136  1  0.04148733  0.51259733  0.02734810  1.0
  Zn  Zn137  1  0.04148733  0.84593067  0.02734810  1.0
  Zn  Zn138  1  0.37482067  0.17926400  0.02734810  1.0
  Zn  Zn139  1  0.37482067  0.51259733  0.02734810  1.0
  Zn  Zn140  1  0.37482067  0.84593067  0.02734810  1.0
  Zn  Zn141  1  0.70815400  0.17926400  0.02734810  1.0
  Zn  Zn142  1  0.70815400  0.51259733  0.02734810  1.0
  Zn  Zn143  1  0.70815400  0.84593067  0.02734810  1.0
  Zn  Zn144  1  0.16197867  0.17926400  0.02734810  1.0
  Zn  Zn145  1  0.16197867  0.51259733  0.02734810  1.0
  Zn  Zn146  1  0.16197867  0.84593067  0.02734810  1.0
  Zn  Zn147  1  0.49531200  0.17926400  0.02734810  1.0
  Zn  Zn148  1  0.49531200  0.51259733  0.02734810  1.0
  Zn  Zn149  1  0.49531200  0.84593067  0.02734810  1.0
  Zn  Zn150  1  0.82864533  0.17926400  0.02734810  1.0
  Zn  Zn151  1  0.82864533  0.51259733  0.02734810  1.0
  Zn  Zn152  1  0.82864533  0.84593067  0.02734810  1.0
  Zn  Zn153  1  0.17135467  0.15406933  0.16807210  1.0
  Zn  Zn154  1  0.17135467  0.48740267  0.16807210  1.0
  Zn  Zn155  1  0.17135467  0.82073600  0.16807210  1.0
  Zn  Zn156  1  0.50468800  0.15406933  0.16807210  1.0
  Zn  Zn157  1  0.50468800  0.48740267  0.16807210  1.0
  Zn  Zn158  1  0.50468800  0.82073600  0.16807210  1.0
  Zn  Zn159  1  0.83802133  0.15406933  0.16807210  1.0
  Zn  Zn160  1  0.83802133  0.48740267  0.16807210  1.0
  Zn  Zn161  1  0.83802133  0.82073600  0.16807210  1.0
  Zn  Zn162  1  0.09404867  0.03328867  0.05439230  1.0
  Zn  Zn163  1  0.09404867  0.36662200  0.05439230  1.0
  Zn  Zn164  1  0.09404867  0.69995533  0.05439230  1.0
  Zn  Zn165  1  0.42738200  0.03328867  0.05439230  1.0
  Zn  Zn166  1  0.42738200  0.36662200  0.05439230  1.0
  Zn  Zn167  1  0.42738200  0.69995533  0.05439230  1.0
  Zn  Zn168  1  0.76071533  0.03328867  0.05439230  1.0
  Zn  Zn169  1  0.76071533  0.36662200  0.05439230  1.0
  Zn  Zn170  1  0.76071533  0.69995533  0.05439230  1.0
  Zn  Zn171  1  0.23928467  0.30004467  0.14102790  1.0
  Zn  Zn172  1  0.23928467  0.63337800  0.14102790  1.0
  Zn  Zn173  1  0.23928467  0.96671133  0.14102790  1.0
  Zn  Zn174  1  0.57261800  0.30004467  0.14102790  1.0
  Zn  Zn175  1  0.57261800  0.63337800  0.14102790  1.0
  Zn  Zn176  1  0.57261800  0.96671133  0.14102790  1.0
  Zn  Zn177  1  0.90595133  0.30004467  0.14102790  1.0
  Zn  Zn178  1  0.90595133  0.63337800  0.14102790  1.0
  Zn  Zn179  1  0.90595133  0.96671133  0.14102790  1.0
  Zn  Zn180  1  0.03286700  0.30004467  0.14102790  1.0
  Zn  Zn181  1  0.03286700  0.63337800  0.14102790  1.0
  Zn  Zn182  1  0.03286700  0.96671133  0.14102790  1.0
  Zn  Zn183  1  0.36620033  0.30004467  0.14102790  1.0
  Zn  Zn184  1  0.36620033  0.63337800  0.14102790  1.0
  Zn  Zn185  1  0.36620033  0.96671133  0.14102790  1.0
  Zn  Zn186  1  0.69953367  0.30004467  0.14102790  1.0
  Zn  Zn187  1  0.69953367  0.63337800  0.14102790  1.0
  Zn  Zn188  1  0.69953367  0.96671133  0.14102790  1.0
  Zn  Zn189  1  0.30046633  0.03328867  0.05439230  1.0
  Zn  Zn190  1  0.30046633  0.36662200  0.05439230  1.0
  Zn  Zn191  1  0.30046633  0.69995533  0.05439230  1.0
  Zn  Zn192  1  0.63379967  0.03328867  0.05439230  1.0
  Zn  Zn193  1  0.63379967  0.36662200  0.05439230  1.0
  Zn  Zn194  1  0.63379967  0.69995533  0.05439230  1.0
  Zn  Zn195  1  0.96713300  0.03328867  0.05439230  1.0
  Zn  Zn196  1  0.96713300  0.36662200  0.05439230  1.0
  Zn  Zn197  1  0.96713300  0.69995533  0.05439230  1.0
  Ni  Ni198  1  0.09603033  0.01805067  0.12377690  1.0
  Ni  Ni199  1  0.09603033  0.35138400  0.12377690  1.0
  Ni  Ni200  1  0.09603033  0.68471733  0.12377690  1.0
  Ni  Ni201  1  0.42936367  0.01805067  0.12377690  1.0
  Ni  Ni202  1  0.42936367  0.35138400  0.12377690  1.0
  Ni  Ni203  1  0.42936367  0.68471733  0.12377690  1.0
  Ni  Ni204  1  0.76269700  0.01805067  0.12377690  1.0
  Ni  Ni205  1  0.76269700  0.35138400  0.12377690  1.0
  Ni  Ni206  1  0.76269700  0.68471733  0.12377690  1.0
  Ni  Ni207  1  0.23730300  0.31528267  0.07164330  1.0
  Ni  Ni208  1  0.23730300  0.64861600  0.07164330  1.0
  Ni  Ni209  1  0.23730300  0.98194933  0.07164330  1.0
  Ni  Ni210  1  0.57063633  0.31528267  0.07164330  1.0
  Ni  Ni211  1  0.57063633  0.64861600  0.07164330  1.0
  Ni  Ni212  1  0.57063633  0.98194933  0.07164330  1.0
  Ni  Ni213  1  0.90396967  0.31528267  0.07164330  1.0
  Ni  Ni214  1  0.90396967  0.64861600  0.07164330  1.0
  Ni  Ni215  1  0.90396967  0.98194933  0.07164330  1.0
  Ni  Ni216  1  0.16666667  0.16666667  0.09771010  1.0
  Ni  Ni217  1  0.16666667  0.50000000  0.09771010  1.0
  Ni  Ni218  1  0.16666667  0.83333333  0.09771010  1.0
  Ni  Ni219  1  0.50000000  0.16666667  0.09771010  1.0
  Ni  Ni220  1  0.50000000  0.50000000  0.09771010  1.0
  Ni  Ni221  1  0.50000000  0.83333333  0.09771010  1.0
  Ni  Ni222  1  0.83333333  0.16666667  0.09771010  1.0
  Ni  Ni223  1  0.83333333  0.50000000  0.09771010  1.0
  Ni  Ni224  1  0.83333333  0.83333333  0.09771010  1.0
  Zn  Zn225  1  0.11486100  0.10368767  0.31868610  1.0
  Zn  Zn226  1  0.11486100  0.43702100  0.31868610  1.0
  Zn  Zn227  1  0.11486100  0.77035433  0.31868610  1.0
  Zn  Zn228  1  0.44819433  0.10368767  0.31868610  1.0
  Zn  Zn229  1  0.44819433  0.43702100  0.31868610  1.0
  Zn  Zn230  1  0.44819433  0.77035433  0.31868610  1.0
  Zn  Zn231  1  0.78152767  0.10368767  0.31868610  1.0
  Zn  Zn232  1  0.78152767  0.43702100  0.31868610  1.0
  Zn  Zn233  1  0.78152767  0.77035433  0.31868610  1.0
  Zn  Zn234  1  0.21847233  0.22964567  0.27673410  1.0
  Zn  Zn235  1  0.21847233  0.56297900  0.27673410  1.0
  Zn  Zn236  1  0.21847233  0.89631233  0.27673410  1.0
  Zn  Zn237  1  0.55180567  0.22964567  0.27673410  1.0
  Zn  Zn238  1  0.55180567  0.56297900  0.27673410  1.0
  Zn  Zn239  1  0.55180567  0.89631233  0.27673410  1.0
  Zn  Zn240  1  0.88513900  0.22964567  0.27673410  1.0
  Zn  Zn241  1  0.88513900  0.56297900  0.27673410  1.0
  Zn  Zn242  1  0.88513900  0.89631233  0.27673410  1.0
  Zn  Zn243  1  0.01692200  0.22964567  0.27673410  1.0
  Zn  Zn244  1  0.01692200  0.56297900  0.27673410  1.0
  Zn  Zn245  1  0.01692200  0.89631233  0.27673410  1.0
  Zn  Zn246  1  0.35025533  0.22964567  0.27673410  1.0
  Zn  Zn247  1  0.35025533  0.56297900  0.27673410  1.0
  Zn  Zn248  1  0.35025533  0.89631233  0.27673410  1.0
  Zn  Zn249  1  0.68358867  0.22964567  0.27673410  1.0
  Zn  Zn250  1  0.68358867  0.56297900  0.27673410  1.0
  Zn  Zn251  1  0.68358867  0.89631233  0.27673410  1.0
  Zn  Zn252  1  0.31641133  0.10368767  0.31868610  1.0
  Zn  Zn253  1  0.31641133  0.43702100  0.31868610  1.0
  Zn  Zn254  1  0.31641133  0.77035433  0.31868610  1.0
  Zn  Zn255  1  0.64974467  0.10368767  0.31868610  1.0
  Zn  Zn256  1  0.64974467  0.43702100  0.31868610  1.0
  Zn  Zn257  1  0.64974467  0.77035433  0.31868610  1.0
  Zn  Zn258  1  0.98307800  0.10368767  0.31868610  1.0
  Zn  Zn259  1  0.98307800  0.43702100  0.31868610  1.0
  Zn  Zn260  1  0.98307800  0.77035433  0.31868610  1.0
  Zn  Zn261  1  0.10747967  0.00000000  0.39771010  1.0
  Zn  Zn262  1  0.10747967  0.33333333  0.39771010  1.0
  Zn  Zn263  1  0.10747967  0.66666667  0.39771010  1.0
  Zn  Zn264  1  0.44081300  0.00000000  0.39771010  1.0
  Zn  Zn265  1  0.44081300  0.33333333  0.39771010  1.0
  Zn  Zn266  1  0.44081300  0.66666667  0.39771010  1.0
  Zn  Zn267  1  0.77414633  0.00000000  0.39771010  1.0
  Zn  Zn268  1  0.77414633  0.33333333  0.39771010  1.0
  Zn  Zn269  1  0.77414633  0.66666667  0.39771010  1.0
  Zn  Zn270  1  0.22585367  0.00000000  0.39771010  1.0
  Zn  Zn271  1  0.22585367  0.33333333  0.39771010  1.0
  Zn  Zn272  1  0.22585367  0.66666667  0.39771010  1.0
  Zn  Zn273  1  0.55918700  0.00000000  0.39771010  1.0
  Zn  Zn274  1  0.55918700  0.33333333  0.39771010  1.0
  Zn  Zn275  1  0.55918700  0.66666667  0.39771010  1.0
  Zn  Zn276  1  0.89252033  0.00000000  0.39771010  1.0
  Zn  Zn277  1  0.89252033  0.33333333  0.39771010  1.0
  Zn  Zn278  1  0.89252033  0.66666667  0.39771010  1.0
  Zn  Zn279  1  0.12838667  0.26142467  0.30862890  1.0
  Zn  Zn280  1  0.12838667  0.59475800  0.30862890  1.0
  Zn  Zn281  1  0.12838667  0.92809133  0.30862890  1.0
  Zn  Zn282  1  0.46172000  0.26142467  0.30862890  1.0
  Zn  Zn283  1  0.46172000  0.59475800  0.30862890  1.0
  Zn  Zn284  1  0.46172000  0.92809133  0.30862890  1.0
  Zn  Zn285  1  0.79505333  0.26142467  0.30862890  1.0
  Zn  Zn286  1  0.79505333  0.59475800  0.30862890  1.0
  Zn  Zn287  1  0.79505333  0.92809133  0.30862890  1.0
  Zn  Zn288  1  0.20494667  0.07190867  0.28679130  1.0
  Zn  Zn289  1  0.20494667  0.40524200  0.28679130  1.0
  Zn  Zn290  1  0.20494667  0.73857533  0.28679130  1.0
  Zn  Zn291  1  0.53828000  0.07190867  0.28679130  1.0
  Zn  Zn292  1  0.53828000  0.40524200  0.28679130  1.0
  Zn  Zn293  1  0.53828000  0.73857533  0.28679130  1.0
  Zn  Zn294  1  0.87161333  0.07190867  0.28679130  1.0
  Zn  Zn295  1  0.87161333  0.40524200  0.28679130  1.0
  Zn  Zn296  1  0.87161333  0.73857533  0.28679130  1.0
  Zn  Zn297  1  0.28249533  0.05875933  0.37196010  1.0
  Zn  Zn298  1  0.28249533  0.39209267  0.37196010  1.0
  Zn  Zn299  1  0.28249533  0.72542600  0.37196010  1.0
  Zn  Zn300  1  0.61582867  0.05875933  0.37196010  1.0
  Zn  Zn301  1  0.61582867  0.39209267  0.37196010  1.0
  Zn  Zn302  1  0.61582867  0.72542600  0.37196010  1.0
  Zn  Zn303  1  0.94916200  0.05875933  0.37196010  1.0
  Zn  Zn304  1  0.94916200  0.39209267  0.37196010  1.0
  Zn  Zn305  1  0.94916200  0.72542600  0.37196010  1.0
  Zn  Zn306  1  0.05083800  0.27457400  0.22346010  1.0
  Zn  Zn307  1  0.05083800  0.60790733  0.22346010  1.0
  Zn  Zn308  1  0.05083800  0.94124067  0.22346010  1.0
  Zn  Zn309  1  0.38417133  0.27457400  0.22346010  1.0
  Zn  Zn310  1  0.38417133  0.60790733  0.22346010  1.0
  Zn  Zn311  1  0.38417133  0.94124067  0.22346010  1.0
  Zn  Zn312  1  0.71750467  0.27457400  0.22346010  1.0
  Zn  Zn313  1  0.71750467  0.60790733  0.22346010  1.0
  Zn  Zn314  1  0.71750467  0.94124067  0.22346010  1.0
  Zn  Zn315  1  0.12505567  0.09085500  0.20228990  1.0
  Zn  Zn316  1  0.12505567  0.42418833  0.20228990  1.0
  Zn  Zn317  1  0.12505567  0.75752167  0.20228990  1.0
  Zn  Zn318  1  0.45838900  0.09085500  0.20228990  1.0
  Zn  Zn319  1  0.45838900  0.42418833  0.20228990  1.0
  Zn  Zn320  1  0.45838900  0.75752167  0.20228990  1.0
  Zn  Zn321  1  0.79172233  0.09085500  0.20228990  1.0
  Zn  Zn322  1  0.79172233  0.42418833  0.20228990  1.0
  Zn  Zn323  1  0.79172233  0.75752167  0.20228990  1.0
  Zn  Zn324  1  0.20827767  0.24247833  0.39313030  1.0
  Zn  Zn325  1  0.20827767  0.57581167  0.39313030  1.0
  Zn  Zn326  1  0.20827767  0.90914500  0.39313030  1.0
  Zn  Zn327  1  0.54161100  0.24247833  0.39313030  1.0
  Zn  Zn328  1  0.54161100  0.57581167  0.39313030  1.0
  Zn  Zn329  1  0.54161100  0.90914500  0.39313030  1.0
  Zn  Zn330  1  0.87494433  0.24247833  0.39313030  1.0
  Zn  Zn331  1  0.87494433  0.57581167  0.39313030  1.0
  Zn  Zn332  1  0.87494433  0.90914500  0.39313030  1.0
  Zn  Zn333  1  0.31252233  0.12548433  0.24802750  1.0
  Zn  Zn334  1  0.31252233  0.45881767  0.24802750  1.0
  Zn  Zn335  1  0.31252233  0.79215100  0.24802750  1.0
  Zn  Zn336  1  0.64585567  0.12548433  0.24802750  1.0
  Zn  Zn337  1  0.64585567  0.45881767  0.24802750  1.0
  Zn  Zn338  1  0.64585567  0.79215100  0.24802750  1.0
  Zn  Zn339  1  0.97918900  0.12548433  0.24802750  1.0
  Zn  Zn340  1  0.97918900  0.45881767  0.24802750  1.0
  Zn  Zn341  1  0.97918900  0.79215100  0.24802750  1.0
  Zn  Zn342  1  0.02081100  0.20784900  0.34739270  1.0
  Zn  Zn343  1  0.02081100  0.54118233  0.34739270  1.0
  Zn  Zn344  1  0.02081100  0.87451567  0.34739270  1.0
  Zn  Zn345  1  0.35414433  0.20784900  0.34739270  1.0
  Zn  Zn346  1  0.35414433  0.54118233  0.34739270  1.0
  Zn  Zn347  1  0.35414433  0.87451567  0.34739270  1.0
  Zn  Zn348  1  0.68747767  0.20784900  0.34739270  1.0
  Zn  Zn349  1  0.68747767  0.54118233  0.34739270  1.0
  Zn  Zn350  1  0.68747767  0.87451567  0.34739270  1.0
  Zn  Zn351  1  0.29184600  0.15406933  0.36807210  1.0
  Zn  Zn352  1  0.29184600  0.48740267  0.36807210  1.0
  Zn  Zn353  1  0.29184600  0.82073600  0.36807210  1.0
  Zn  Zn354  1  0.62517933  0.15406933  0.36807210  1.0
  Zn  Zn355  1  0.62517933  0.48740267  0.36807210  1.0
  Zn  Zn356  1  0.62517933  0.82073600  0.36807210  1.0
  Zn  Zn357  1  0.95851267  0.15406933  0.36807210  1.0
  Zn  Zn358  1  0.95851267  0.48740267  0.36807210  1.0
  Zn  Zn359  1  0.95851267  0.82073600  0.36807210  1.0
  Zn  Zn360  1  0.04148733  0.17926400  0.22734810  1.0
  Zn  Zn361  1  0.04148733  0.51259733  0.22734810  1.0
  Zn  Zn362  1  0.04148733  0.84593067  0.22734810  1.0
  Zn  Zn363  1  0.37482067  0.17926400  0.22734810  1.0
  Zn  Zn364  1  0.37482067  0.51259733  0.22734810  1.0
  Zn  Zn365  1  0.37482067  0.84593067  0.22734810  1.0
  Zn  Zn366  1  0.70815400  0.17926400  0.22734810  1.0
  Zn  Zn367  1  0.70815400  0.51259733  0.22734810  1.0
  Zn  Zn368  1  0.70815400  0.84593067  0.22734810  1.0
  Zn  Zn369  1  0.16197867  0.17926400  0.22734810  1.0
  Zn  Zn370  1  0.16197867  0.51259733  0.22734810  1.0
  Zn  Zn371  1  0.16197867  0.84593067  0.22734810  1.0
  Zn  Zn372  1  0.49531200  0.17926400  0.22734810  1.0
  Zn  Zn373  1  0.49531200  0.51259733  0.22734810  1.0
  Zn  Zn374  1  0.49531200  0.84593067  0.22734810  1.0
  Zn  Zn375  1  0.82864533  0.17926400  0.22734810  1.0
  Zn  Zn376  1  0.82864533  0.51259733  0.22734810  1.0
  Zn  Zn377  1  0.82864533  0.84593067  0.22734810  1.0
  Zn  Zn378  1  0.17135467  0.15406933  0.36807210  1.0
  Zn  Zn379  1  0.17135467  0.48740267  0.36807210  1.0
  Zn  Zn380  1  0.17135467  0.82073600  0.36807210  1.0
  Zn  Zn381  1  0.50468800  0.15406933  0.36807210  1.0
  Zn  Zn382  1  0.50468800  0.48740267  0.36807210  1.0
  Zn  Zn383  1  0.50468800  0.82073600  0.36807210  1.0
  Zn  Zn384  1  0.83802133  0.15406933  0.36807210  1.0
  Zn  Zn385  1  0.83802133  0.48740267  0.36807210  1.0
  Zn  Zn386  1  0.83802133  0.82073600  0.36807210  1.0
  Zn  Zn387  1  0.09404867  0.03328867  0.25439230  1.0
  Zn  Zn388  1  0.09404867  0.36662200  0.25439230  1.0
  Zn  Zn389  1  0.09404867  0.69995533  0.25439230  1.0
  Zn  Zn390  1  0.42738200  0.03328867  0.25439230  1.0
  Zn  Zn391  1  0.42738200  0.36662200  0.25439230  1.0
  Zn  Zn392  1  0.42738200  0.69995533  0.25439230  1.0
  Zn  Zn393  1  0.76071533  0.03328867  0.25439230  1.0
  Zn  Zn394  1  0.76071533  0.36662200  0.25439230  1.0
  Zn  Zn395  1  0.76071533  0.69995533  0.25439230  1.0
  Zn  Zn396  1  0.23928467  0.30004467  0.34102790  1.0
  Zn  Zn397  1  0.23928467  0.63337800  0.34102790  1.0
  Zn  Zn398  1  0.23928467  0.96671133  0.34102790  1.0
  Zn  Zn399  1  0.57261800  0.30004467  0.34102790  1.0
  Zn  Zn400  1  0.57261800  0.63337800  0.34102790  1.0
  Zn  Zn401  1  0.57261800  0.96671133  0.34102790  1.0
  Zn  Zn402  1  0.90595133  0.30004467  0.34102790  1.0
  Zn  Zn403  1  0.90595133  0.63337800  0.34102790  1.0
  Zn  Zn404  1  0.90595133  0.96671133  0.34102790  1.0
  Zn  Zn405  1  0.03286700  0.30004467  0.34102790  1.0
  Zn  Zn406  1  0.03286700  0.63337800  0.34102790  1.0
  Zn  Zn407  1  0.03286700  0.96671133  0.34102790  1.0
  Zn  Zn408  1  0.36620033  0.30004467  0.34102790  1.0
  Zn  Zn409  1  0.36620033  0.63337800  0.34102790  1.0
  Zn  Zn410  1  0.36620033  0.96671133  0.34102790  1.0
  Zn  Zn411  1  0.69953367  0.30004467  0.34102790  1.0
  Zn  Zn412  1  0.69953367  0.63337800  0.34102790  1.0
  Zn  Zn413  1  0.69953367  0.96671133  0.34102790  1.0
  Zn  Zn414  1  0.30046633  0.03328867  0.25439230  1.0
  Zn  Zn415  1  0.30046633  0.36662200  0.25439230  1.0
  Zn  Zn416  1  0.30046633  0.69995533  0.25439230  1.0
  Zn  Zn417  1  0.63379967  0.03328867  0.25439230  1.0
  Zn  Zn418  1  0.63379967  0.36662200  0.25439230  1.0
  Zn  Zn419  1  0.63379967  0.69995533  0.25439230  1.0
  Zn  Zn420  1  0.96713300  0.03328867  0.25439230  1.0
  Zn  Zn421  1  0.96713300  0.36662200  0.25439230  1.0
  Zn  Zn422  1  0.96713300  0.69995533  0.25439230  1.0
  Ni  Ni423  1  0.09603033  0.01805067  0.32377690  1.0
  Ni  Ni424  1  0.09603033  0.35138400  0.32377690  1.0
  Ni  Ni425  1  0.09603033  0.68471733  0.32377690  1.0
  Ni  Ni426  1  0.42936367  0.01805067  0.32377690  1.0
  Ni  Ni427  1  0.42936367  0.35138400  0.32377690  1.0
  Ni  Ni428  1  0.42936367  0.68471733  0.32377690  1.0
  Ni  Ni429  1  0.76269700  0.01805067  0.32377690  1.0
  Ni  Ni430  1  0.76269700  0.35138400  0.32377690  1.0
  Ni  Ni431  1  0.76269700  0.68471733  0.32377690  1.0
  Ni  Ni432  1  0.23730300  0.31528267  0.27164330  1.0
  Ni  Ni433  1  0.23730300  0.64861600  0.27164330  1.0
  Ni  Ni434  1  0.23730300  0.98194933  0.27164330  1.0
  Ni  Ni435  1  0.57063633  0.31528267  0.27164330  1.0
  Ni  Ni436  1  0.57063633  0.64861600  0.27164330  1.0
  Ni  Ni437  1  0.57063633  0.98194933  0.27164330  1.0
  Ni  Ni438  1  0.90396967  0.31528267  0.27164330  1.0
  Ni  Ni439  1  0.90396967  0.64861600  0.27164330  1.0
  Ni  Ni440  1  0.90396967  0.98194933  0.27164330  1.0
  Ni  Ni441  1  0.16666667  0.16666667  0.29771010  1.0
  Ni  Ni442  1  0.16666667  0.50000000  0.29771010  1.0
  Ni  Ni443  1  0.16666667  0.83333333  0.29771010  1.0
  Ni  Ni444  1  0.50000000  0.16666667  0.29771010  1.0
  Ni  Ni445  1  0.50000000  0.50000000  0.29771010  1.0
  Ni  Ni446  1  0.50000000  0.83333333  0.29771010  1.0
  Ni  Ni447  1  0.83333333  0.16666667  0.29771010  1.0
  Ni  Ni448  1  0.83333333  0.50000000  0.29771010  1.0
  Ni  Ni449  1  0.83333333  0.83333333  0.29771010  1.0
