# generated using pymatgen
data_Zn22Ni3
_symmetry_space_group_name_H-M   'P 1'
_cell_length_a   22.95730371
_cell_length_b   40.09707601
_cell_length_c   61.18293848
_cell_angle_alpha   29.09457746
_cell_angle_beta   72.17518950
_cell_angle_gamma   69.49370158
_symmetry_Int_Tables_number   1
_chemical_formula_structural   Zn22Ni3
_chemical_formula_sum   'Zn594 Ni81'
_cell_volume   25650.49195599
_cell_formula_units_Z   27
loop_
 _symmetry_equiv_pos_site_id
 _symmetry_equiv_pos_as_xyz
  1  'x, y, z'
loop_
 _atom_site_type_symbol
 _atom_site_label
 _atom_site_symmetry_multiplicity
 _atom_site_fract_x
 _atom_site_fract_y
 _atom_site_fract_z
 _atom_site_occupancy
  Zn  Zn0  1  0.22964567  0.21854867  0.05178469  1.0
  Zn  Zn1  1  0.22964567  0.55188200  0.05178469  1.0
  Zn  Zn2  1  0.22964567  0.88521533  0.05178469  1.0
  Zn  Zn3  1  0.56297900  0.21854867  0.05178469  1.0
  Zn  Zn4  1  0.56297900  0.55188200  0.05178469  1.0
  Zn  Zn5  1  0.56297900  0.88521533  0.05178469  1.0
  Zn  Zn6  1  0.89631233  0.21854867  0.05178469  1.0
  Zn  Zn7  1  0.89631233  0.55188200  0.05178469  1.0
  Zn  Zn8  1  0.89631233  0.88521533  0.05178469  1.0
  Zn  Zn9  1  0.10368767  0.11478467  0.02562194  1.0
  Zn  Zn10  1  0.10368767  0.44811800  0.02562194  1.0
  Zn  Zn11  1  0.10368767  0.78145133  0.02562194  1.0
  Zn  Zn12  1  0.43702100  0.11478467  0.02562194  1.0
  Zn  Zn13  1  0.43702100  0.44811800  0.02562194  1.0
  Zn  Zn14  1  0.43702100  0.78145133  0.02562194  1.0
  Zn  Zn15  1  0.77035433  0.11478467  0.02562194  1.0
  Zn  Zn16  1  0.77035433  0.44811800  0.02562194  1.0
  Zn  Zn17  1  0.77035433  0.78145133  0.02562194  1.0
  Zn  Zn18  1  0.10368767  0.24656767  0.05178469  1.0
  Zn  Zn19  1  0.10368767  0.57990100  0.05178469  1.0
  Zn  Zn20  1  0.10368767  0.91323433  0.05178469  1.0
  Zn  Zn21  1  0.43702100  0.24656767  0.05178469  1.0
  Zn  Zn22  1  0.43702100  0.57990100  0.05178469  1.0
  Zn  Zn23  1  0.43702100  0.91323433  0.05178469  1.0
  Zn  Zn24  1  0.77035433  0.24656767  0.05178469  1.0
  Zn  Zn25  1  0.77035433  0.57990100  0.05178469  1.0
  Zn  Zn26  1  0.77035433  0.91323433  0.05178469  1.0
  Zn  Zn27  1  0.22964567  0.08676567  0.02562194  1.0
  Zn  Zn28  1  0.22964567  0.42009900  0.02562194  1.0
  Zn  Zn29  1  0.22964567  0.75343233  0.02562194  1.0
  Zn  Zn30  1  0.56297900  0.08676567  0.02562194  1.0
  Zn  Zn31  1  0.56297900  0.42009900  0.02562194  1.0
  Zn  Zn32  1  0.56297900  0.75343233  0.02562194  1.0
  Zn  Zn33  1  0.89631233  0.08676567  0.02562194  1.0
  Zn  Zn34  1  0.89631233  0.42009900  0.02562194  1.0
  Zn  Zn35  1  0.89631233  0.75343233  0.02562194  1.0
  Zn  Zn36  1  0.00000000  0.10747967  0.02059356  1.0
  Zn  Zn37  1  0.00000000  0.44081300  0.02059356  1.0
  Zn  Zn38  1  0.00000000  0.77414633  0.02059356  1.0
  Zn  Zn39  1  0.33333333  0.10747967  0.02059356  1.0
  Zn  Zn40  1  0.33333333  0.44081300  0.02059356  1.0
  Zn  Zn41  1  0.33333333  0.77414633  0.02059356  1.0
  Zn  Zn42  1  0.66666667  0.10747967  0.02059356  1.0
  Zn  Zn43  1  0.66666667  0.44081300  0.02059356  1.0
  Zn  Zn44  1  0.66666667  0.77414633  0.02059356  1.0
  Zn  Zn45  1  0.00000000  0.22585367  0.05681306  1.0
  Zn  Zn46  1  0.00000000  0.55918700  0.05681306  1.0
  Zn  Zn47  1  0.00000000  0.89252033  0.05681306  1.0
  Zn  Zn48  1  0.33333333  0.22585367  0.05681306  1.0
  Zn  Zn49  1  0.33333333  0.55918700  0.05681306  1.0
  Zn  Zn50  1  0.33333333  0.89252033  0.05681306  1.0
  Zn  Zn51  1  0.66666667  0.22585367  0.05681306  1.0
  Zn  Zn52  1  0.66666667  0.55918700  0.05681306  1.0
  Zn  Zn53  1  0.66666667  0.89252033  0.05681306  1.0
  Zn  Zn54  1  0.07190867  0.05647800  0.10120331  1.0
  Zn  Zn55  1  0.07190867  0.38981133  0.10120331  1.0
  Zn  Zn56  1  0.07190867  0.72314467  0.10120331  1.0
  Zn  Zn57  1  0.40524200  0.05647800  0.10120331  1.0
  Zn  Zn58  1  0.40524200  0.38981133  0.10120331  1.0
  Zn  Zn59  1  0.40524200  0.72314467  0.10120331  1.0
  Zn  Zn60  1  0.73857533  0.05647800  0.10120331  1.0
  Zn  Zn61  1  0.73857533  0.38981133  0.10120331  1.0
  Zn  Zn62  1  0.73857533  0.72314467  0.10120331  1.0
  Zn  Zn63  1  0.26142467  0.27685533  0.10120331  1.0
  Zn  Zn64  1  0.26142467  0.61018867  0.10120331  1.0
  Zn  Zn65  1  0.26142467  0.94352200  0.10120331  1.0
  Zn  Zn66  1  0.59475800  0.27685533  0.10120331  1.0
  Zn  Zn67  1  0.59475800  0.61018867  0.10120331  1.0
  Zn  Zn68  1  0.59475800  0.94352200  0.10120331  1.0
  Zn  Zn69  1  0.92809133  0.27685533  0.10120331  1.0
  Zn  Zn70  1  0.92809133  0.61018867  0.10120331  1.0
  Zn  Zn71  1  0.92809133  0.94352200  0.10120331  1.0
  Zn  Zn72  1  0.27457400  0.00792133  0.10120331  1.0
  Zn  Zn73  1  0.27457400  0.34125467  0.10120331  1.0
  Zn  Zn74  1  0.27457400  0.67458800  0.10120331  1.0
  Zn  Zn75  1  0.60790733  0.00792133  0.10120331  1.0
  Zn  Zn76  1  0.60790733  0.34125467  0.10120331  1.0
  Zn  Zn77  1  0.60790733  0.67458800  0.10120331  1.0
  Zn  Zn78  1  0.94124067  0.00792133  0.10120331  1.0
  Zn  Zn79  1  0.94124067  0.34125467  0.10120331  1.0
  Zn  Zn80  1  0.94124067  0.67458800  0.10120331  1.0
  Zn  Zn81  1  0.05875933  0.32541200  0.10120331  1.0
  Zn  Zn82  1  0.05875933  0.65874533  0.10120331  1.0
  Zn  Zn83  1  0.05875933  0.99207867  0.10120331  1.0
  Zn  Zn84  1  0.39209267  0.32541200  0.10120331  1.0
  Zn  Zn85  1  0.39209267  0.65874533  0.10120331  1.0
  Zn  Zn86  1  0.39209267  0.99207867  0.10120331  1.0
  Zn  Zn87  1  0.72542600  0.32541200  0.10120331  1.0
  Zn  Zn88  1  0.72542600  0.65874533  0.10120331  1.0
  Zn  Zn89  1  0.72542600  0.99207867  0.10120331  1.0
  Zn  Zn90  1  0.24247833  0.21591067  0.10120331  1.0
  Zn  Zn91  1  0.24247833  0.54924400  0.10120331  1.0
  Zn  Zn92  1  0.24247833  0.88257733  0.10120331  1.0
  Zn  Zn93  1  0.57581167  0.21591067  0.10120331  1.0
  Zn  Zn94  1  0.57581167  0.54924400  0.10120331  1.0
  Zn  Zn95  1  0.57581167  0.88257733  0.10120331  1.0
  Zn  Zn96  1  0.90914500  0.21591067  0.10120331  1.0
  Zn  Zn97  1  0.90914500  0.54924400  0.10120331  1.0
  Zn  Zn98  1  0.90914500  0.88257733  0.10120331  1.0
  Zn  Zn99  1  0.09085500  0.11742267  0.10120331  1.0
  Zn  Zn100  1  0.09085500  0.45075600  0.10120331  1.0
  Zn  Zn101  1  0.09085500  0.78408933  0.10120331  1.0
  Zn  Zn102  1  0.42418833  0.11742267  0.10120331  1.0
  Zn  Zn103  1  0.42418833  0.45075600  0.10120331  1.0
  Zn  Zn104  1  0.42418833  0.78408933  0.10120331  1.0
  Zn  Zn105  1  0.75752167  0.11742267  0.10120331  1.0
  Zn  Zn106  1  0.75752167  0.45075600  0.10120331  1.0
  Zn  Zn107  1  0.75752167  0.78408933  0.10120331  1.0
  Zn  Zn108  1  0.20784900  0.10467333  0.10120331  1.0
  Zn  Zn109  1  0.20784900  0.43800667  0.10120331  1.0
  Zn  Zn110  1  0.20784900  0.77134000  0.10120331  1.0
  Zn  Zn111  1  0.54118233  0.10467333  0.10120331  1.0
  Zn  Zn112  1  0.54118233  0.43800667  0.10120331  1.0
  Zn  Zn113  1  0.54118233  0.77134000  0.10120331  1.0
  Zn  Zn114  1  0.87451567  0.10467333  0.10120331  1.0
  Zn  Zn115  1  0.87451567  0.43800667  0.10120331  1.0
  Zn  Zn116  1  0.87451567  0.77134000  0.10120331  1.0
  Zn  Zn117  1  0.12548433  0.22866000  0.10120331  1.0
  Zn  Zn118  1  0.12548433  0.56199333  0.10120331  1.0
  Zn  Zn119  1  0.12548433  0.89532667  0.10120331  1.0
  Zn  Zn120  1  0.45881767  0.22866000  0.10120331  1.0
  Zn  Zn121  1  0.45881767  0.56199333  0.10120331  1.0
  Zn  Zn122  1  0.45881767  0.89532667  0.10120331  1.0
  Zn  Zn123  1  0.79215100  0.22866000  0.10120331  1.0
  Zn  Zn124  1  0.79215100  0.56199333  0.10120331  1.0
  Zn  Zn125  1  0.79215100  0.89532667  0.10120331  1.0
  Zn  Zn126  1  0.17926400  0.11258200  0.05601906  1.0
  Zn  Zn127  1  0.17926400  0.44591533  0.05601906  1.0
  Zn  Zn128  1  0.17926400  0.77924867  0.05601906  1.0
  Zn  Zn129  1  0.51259733  0.11258200  0.05601906  1.0
  Zn  Zn130  1  0.51259733  0.44591533  0.05601906  1.0
  Zn  Zn131  1  0.51259733  0.77924867  0.05601906  1.0
  Zn  Zn132  1  0.84593067  0.11258200  0.05601906  1.0
  Zn  Zn133  1  0.84593067  0.44591533  0.05601906  1.0
  Zn  Zn134  1  0.84593067  0.77924867  0.05601906  1.0
  Zn  Zn135  1  0.15406933  0.22075133  0.02138756  1.0
  Zn  Zn136  1  0.15406933  0.55408467  0.02138756  1.0
  Zn  Zn137  1  0.15406933  0.88741800  0.02138756  1.0
  Zn  Zn138  1  0.48740267  0.22075133  0.02138756  1.0
  Zn  Zn139  1  0.48740267  0.55408467  0.02138756  1.0
  Zn  Zn140  1  0.48740267  0.88741800  0.02138756  1.0
  Zn  Zn141  1  0.82073600  0.22075133  0.02138756  1.0
  Zn  Zn142  1  0.82073600  0.55408467  0.02138756  1.0
  Zn  Zn143  1  0.82073600  0.88741800  0.02138756  1.0
  Zn  Zn144  1  0.15406933  0.00790933  0.05601906  1.0
  Zn  Zn145  1  0.15406933  0.34124267  0.05601906  1.0
  Zn  Zn146  1  0.15406933  0.67457600  0.05601906  1.0
  Zn  Zn147  1  0.48740267  0.00790933  0.05601906  1.0
  Zn  Zn148  1  0.48740267  0.34124267  0.05601906  1.0
  Zn  Zn149  1  0.48740267  0.67457600  0.05601906  1.0
  Zn  Zn150  1  0.82073600  0.00790933  0.05601906  1.0
  Zn  Zn151  1  0.82073600  0.34124267  0.05601906  1.0
  Zn  Zn152  1  0.82073600  0.67457600  0.05601906  1.0
  Zn  Zn153  1  0.17926400  0.32542400  0.02138756  1.0
  Zn  Zn154  1  0.17926400  0.65875733  0.02138756  1.0
  Zn  Zn155  1  0.17926400  0.99209067  0.02138756  1.0
  Zn  Zn156  1  0.51259733  0.32542400  0.02138756  1.0
  Zn  Zn157  1  0.51259733  0.65875733  0.02138756  1.0
  Zn  Zn158  1  0.51259733  0.99209067  0.02138756  1.0
  Zn  Zn159  1  0.84593067  0.32542400  0.02138756  1.0
  Zn  Zn160  1  0.84593067  0.65875733  0.02138756  1.0
  Zn  Zn161  1  0.84593067  0.99209067  0.02138756  1.0
  Zn  Zn162  1  0.30004467  0.12733733  0.05360994  1.0
  Zn  Zn163  1  0.30004467  0.46067067  0.05360994  1.0
  Zn  Zn164  1  0.30004467  0.79400400  0.05360994  1.0
  Zn  Zn165  1  0.63337800  0.12733733  0.05360994  1.0
  Zn  Zn166  1  0.63337800  0.46067067  0.05360994  1.0
  Zn  Zn167  1  0.63337800  0.79400400  0.05360994  1.0
  Zn  Zn168  1  0.96671133  0.12733733  0.05360994  1.0
  Zn  Zn169  1  0.96671133  0.46067067  0.05360994  1.0
  Zn  Zn170  1  0.96671133  0.79400400  0.05360994  1.0
  Zn  Zn171  1  0.03328867  0.20599600  0.02379669  1.0
  Zn  Zn172  1  0.03328867  0.53932933  0.02379669  1.0
  Zn  Zn173  1  0.03328867  0.87266267  0.02379669  1.0
  Zn  Zn174  1  0.36662200  0.20599600  0.02379669  1.0
  Zn  Zn175  1  0.36662200  0.53932933  0.02379669  1.0
  Zn  Zn176  1  0.36662200  0.87266267  0.02379669  1.0
  Zn  Zn177  1  0.69995533  0.20599600  0.02379669  1.0
  Zn  Zn178  1  0.69995533  0.53932933  0.02379669  1.0
  Zn  Zn179  1  0.69995533  0.87266267  0.02379669  1.0
  Zn  Zn180  1  0.03328867  0.33291167  0.05360994  1.0
  Zn  Zn181  1  0.03328867  0.66624500  0.05360994  1.0
  Zn  Zn182  1  0.03328867  0.99957833  0.05360994  1.0
  Zn  Zn183  1  0.36662200  0.33291167  0.05360994  1.0
  Zn  Zn184  1  0.36662200  0.66624500  0.05360994  1.0
  Zn  Zn185  1  0.36662200  0.99957833  0.05360994  1.0
  Zn  Zn186  1  0.69995533  0.33291167  0.05360994  1.0
  Zn  Zn187  1  0.69995533  0.66624500  0.05360994  1.0
  Zn  Zn188  1  0.69995533  0.99957833  0.05360994  1.0
  Zn  Zn189  1  0.30004467  0.00042167  0.02379669  1.0
  Zn  Zn190  1  0.30004467  0.33375500  0.02379669  1.0
  Zn  Zn191  1  0.30004467  0.66708833  0.02379669  1.0
  Zn  Zn192  1  0.63337800  0.00042167  0.02379669  1.0
  Zn  Zn193  1  0.63337800  0.33375500  0.02379669  1.0
  Zn  Zn194  1  0.63337800  0.66708833  0.02379669  1.0
  Zn  Zn195  1  0.96671133  0.00042167  0.02379669  1.0
  Zn  Zn196  1  0.96671133  0.33375500  0.02379669  1.0
  Zn  Zn197  1  0.96671133  0.66708833  0.02379669  1.0
  Ni  Ni198  1  0.31528267  0.11408100  0.10120331  1.0
  Ni  Ni199  1  0.31528267  0.44741433  0.10120331  1.0
  Ni  Ni200  1  0.31528267  0.78074767  0.10120331  1.0
  Ni  Ni201  1  0.64861600  0.11408100  0.10120331  1.0
  Ni  Ni202  1  0.64861600  0.44741433  0.10120331  1.0
  Ni  Ni203  1  0.64861600  0.78074767  0.10120331  1.0
  Ni  Ni204  1  0.98194933  0.11408100  0.10120331  1.0
  Ni  Ni205  1  0.98194933  0.44741433  0.10120331  1.0
  Ni  Ni206  1  0.98194933  0.78074767  0.10120331  1.0
  Ni  Ni207  1  0.01805067  0.21925233  0.10120331  1.0
  Ni  Ni208  1  0.01805067  0.55258567  0.10120331  1.0
  Ni  Ni209  1  0.01805067  0.88591900  0.10120331  1.0
  Ni  Ni210  1  0.35138400  0.21925233  0.10120331  1.0
  Ni  Ni211  1  0.35138400  0.55258567  0.10120331  1.0
  Ni  Ni212  1  0.35138400  0.88591900  0.10120331  1.0
  Ni  Ni213  1  0.68471733  0.21925233  0.10120331  1.0
  Ni  Ni214  1  0.68471733  0.55258567  0.10120331  1.0
  Ni  Ni215  1  0.68471733  0.88591900  0.10120331  1.0
  Ni  Ni216  1  0.16666667  0.00000000  0.10120331  1.0
  Ni  Ni217  1  0.16666667  0.33333333  0.10120331  1.0
  Ni  Ni218  1  0.16666667  0.66666667  0.10120331  1.0
  Ni  Ni219  1  0.50000000  0.00000000  0.10120331  1.0
  Ni  Ni220  1  0.50000000  0.33333333  0.10120331  1.0
  Ni  Ni221  1  0.50000000  0.66666667  0.10120331  1.0
  Ni  Ni222  1  0.83333333  0.00000000  0.10120331  1.0
  Ni  Ni223  1  0.83333333  0.33333333  0.10120331  1.0
  Ni  Ni224  1  0.83333333  0.66666667  0.10120331  1.0
  Zn  Zn225  1  0.22964567  0.21854867  0.17678469  1.0
  Zn  Zn226  1  0.22964567  0.55188200  0.17678469  1.0
  Zn  Zn227  1  0.22964567  0.88521533  0.17678469  1.0
  Zn  Zn228  1  0.56297900  0.21854867  0.17678469  1.0
  Zn  Zn229  1  0.56297900  0.55188200  0.17678469  1.0
  Zn  Zn230  1  0.56297900  0.88521533  0.17678469  1.0
  Zn  Zn231  1  0.89631233  0.21854867  0.17678469  1.0
  Zn  Zn232  1  0.89631233  0.55188200  0.17678469  1.0
  Zn  Zn233  1  0.89631233  0.88521533  0.17678469  1.0
  Zn  Zn234  1  0.10368767  0.11478467  0.15062194  1.0
  Zn  Zn235  1  0.10368767  0.44811800  0.15062194  1.0
  Zn  Zn236  1  0.10368767  0.78145133  0.15062194  1.0
  Zn  Zn237  1  0.43702100  0.11478467  0.15062194  1.0
  Zn  Zn238  1  0.43702100  0.44811800  0.15062194  1.0
  Zn  Zn239  1  0.43702100  0.78145133  0.15062194  1.0
  Zn  Zn240  1  0.77035433  0.11478467  0.15062194  1.0
  Zn  Zn241  1  0.77035433  0.44811800  0.15062194  1.0
  Zn  Zn242  1  0.77035433  0.78145133  0.15062194  1.0
  Zn  Zn243  1  0.10368767  0.24656767  0.17678469  1.0
  Zn  Zn244  1  0.10368767  0.57990100  0.17678469  1.0
  Zn  Zn245  1  0.10368767  0.91323433  0.17678469  1.0
  Zn  Zn246  1  0.43702100  0.24656767  0.17678469  1.0
  Zn  Zn247  1  0.43702100  0.57990100  0.17678469  1.0
  Zn  Zn248  1  0.43702100  0.91323433  0.17678469  1.0
  Zn  Zn249  1  0.77035433  0.24656767  0.17678469  1.0
  Zn  Zn250  1  0.77035433  0.57990100  0.17678469  1.0
  Zn  Zn251  1  0.77035433  0.91323433  0.17678469  1.0
  Zn  Zn252  1  0.22964567  0.08676567  0.15062194  1.0
  Zn  Zn253  1  0.22964567  0.42009900  0.15062194  1.0
  Zn  Zn254  1  0.22964567  0.75343233  0.15062194  1.0
  Zn  Zn255  1  0.56297900  0.08676567  0.15062194  1.0
  Zn  Zn256  1  0.56297900  0.42009900  0.15062194  1.0
  Zn  Zn257  1  0.56297900  0.75343233  0.15062194  1.0
  Zn  Zn258  1  0.89631233  0.08676567  0.15062194  1.0
  Zn  Zn259  1  0.89631233  0.42009900  0.15062194  1.0
  Zn  Zn260  1  0.89631233  0.75343233  0.15062194  1.0
  Zn  Zn261  1  0.00000000  0.10747967  0.14559356  1.0
  Zn  Zn262  1  0.00000000  0.44081300  0.14559356  1.0
  Zn  Zn263  1  0.00000000  0.77414633  0.14559356  1.0
  Zn  Zn264  1  0.33333333  0.10747967  0.14559356  1.0
  Zn  Zn265  1  0.33333333  0.44081300  0.14559356  1.0
  Zn  Zn266  1  0.33333333  0.77414633  0.14559356  1.0
  Zn  Zn267  1  0.66666667  0.10747967  0.14559356  1.0
  Zn  Zn268  1  0.66666667  0.44081300  0.14559356  1.0
  Zn  Zn269  1  0.66666667  0.77414633  0.14559356  1.0
  Zn  Zn270  1  0.00000000  0.22585367  0.18181306  1.0
  Zn  Zn271  1  0.00000000  0.55918700  0.18181306  1.0
  Zn  Zn272  1  0.00000000  0.89252033  0.18181306  1.0
  Zn  Zn273  1  0.33333333  0.22585367  0.18181306  1.0
  Zn  Zn274  1  0.33333333  0.55918700  0.18181306  1.0
  Zn  Zn275  1  0.33333333  0.89252033  0.18181306  1.0
  Zn  Zn276  1  0.66666667  0.22585367  0.18181306  1.0
  Zn  Zn277  1  0.66666667  0.55918700  0.18181306  1.0
  Zn  Zn278  1  0.66666667  0.89252033  0.18181306  1.0
  Zn  Zn279  1  0.07190867  0.05647800  0.22620331  1.0
  Zn  Zn280  1  0.07190867  0.38981133  0.22620331  1.0
  Zn  Zn281  1  0.07190867  0.72314467  0.22620331  1.0
  Zn  Zn282  1  0.40524200  0.05647800  0.22620331  1.0
  Zn  Zn283  1  0.40524200  0.38981133  0.22620331  1.0
  Zn  Zn284  1  0.40524200  0.72314467  0.22620331  1.0
  Zn  Zn285  1  0.73857533  0.05647800  0.22620331  1.0
  Zn  Zn286  1  0.73857533  0.38981133  0.22620331  1.0
  Zn  Zn287  1  0.73857533  0.72314467  0.22620331  1.0
  Zn  Zn288  1  0.26142467  0.27685533  0.22620331  1.0
  Zn  Zn289  1  0.26142467  0.61018867  0.22620331  1.0
  Zn  Zn290  1  0.26142467  0.94352200  0.22620331  1.0
  Zn  Zn291  1  0.59475800  0.27685533  0.22620331  1.0
  Zn  Zn292  1  0.59475800  0.61018867  0.22620331  1.0
  Zn  Zn293  1  0.59475800  0.94352200  0.22620331  1.0
  Zn  Zn294  1  0.92809133  0.27685533  0.22620331  1.0
  Zn  Zn295  1  0.92809133  0.61018867  0.22620331  1.0
  Zn  Zn296  1  0.92809133  0.94352200  0.22620331  1.0
  Zn  Zn297  1  0.27457400  0.00792133  0.22620331  1.0
  Zn  Zn298  1  0.27457400  0.34125467  0.22620331  1.0
  Zn  Zn299  1  0.27457400  0.67458800  0.22620331  1.0
  Zn  Zn300  1  0.60790733  0.00792133  0.22620331  1.0
  Zn  Zn301  1  0.60790733  0.34125467  0.22620331  1.0
  Zn  Zn302  1  0.60790733  0.67458800  0.22620331  1.0
  Zn  Zn303  1  0.94124067  0.00792133  0.22620331  1.0
  Zn  Zn304  1  0.94124067  0.34125467  0.22620331  1.0
  Zn  Zn305  1  0.94124067  0.67458800  0.22620331  1.0
  Zn  Zn306  1  0.05875933  0.32541200  0.22620331  1.0
  Zn  Zn307  1  0.05875933  0.65874533  0.22620331  1.0
  Zn  Zn308  1  0.05875933  0.99207867  0.22620331  1.0
  Zn  Zn309  1  0.39209267  0.32541200  0.22620331  1.0
  Zn  Zn310  1  0.39209267  0.65874533  0.22620331  1.0
  Zn  Zn311  1  0.39209267  0.99207867  0.22620331  1.0
  Zn  Zn312  1  0.72542600  0.32541200  0.22620331  1.0
  Zn  Zn313  1  0.72542600  0.65874533  0.22620331  1.0
  Zn  Zn314  1  0.72542600  0.99207867  0.22620331  1.0
  Zn  Zn315  1  0.24247833  0.21591067  0.22620331  1.0
  Zn  Zn316  1  0.24247833  0.54924400  0.22620331  1.0
  Zn  Zn317  1  0.24247833  0.88257733  0.22620331  1.0
  Zn  Zn318  1  0.57581167  0.21591067  0.22620331  1.0
  Zn  Zn319  1  0.57581167  0.54924400  0.22620331  1.0
  Zn  Zn320  1  0.57581167  0.88257733  0.22620331  1.0
  Zn  Zn321  1  0.90914500  0.21591067  0.22620331  1.0
  Zn  Zn322  1  0.90914500  0.54924400  0.22620331  1.0
  Zn  Zn323  1  0.90914500  0.88257733  0.22620331  1.0
  Zn  Zn324  1  0.09085500  0.11742267  0.22620331  1.0
  Zn  Zn325  1  0.09085500  0.45075600  0.22620331  1.0
  Zn  Zn326  1  0.09085500  0.78408933  0.22620331  1.0
  Zn  Zn327  1  0.42418833  0.11742267  0.22620331  1.0
  Zn  Zn328  1  0.42418833  0.45075600  0.22620331  1.0
  Zn  Zn329  1  0.42418833  0.78408933  0.22620331  1.0
  Zn  Zn330  1  0.75752167  0.11742267  0.22620331  1.0
  Zn  Zn331  1  0.75752167  0.45075600  0.22620331  1.0
  Zn  Zn332  1  0.75752167  0.78408933  0.22620331  1.0
  Zn  Zn333  1  0.20784900  0.10467333  0.22620331  1.0
  Zn  Zn334  1  0.20784900  0.43800667  0.22620331  1.0
  Zn  Zn335  1  0.20784900  0.77134000  0.22620331  1.0
  Zn  Zn336  1  0.54118233  0.10467333  0.22620331  1.0
  Zn  Zn337  1  0.54118233  0.43800667  0.22620331  1.0
  Zn  Zn338  1  0.54118233  0.77134000  0.22620331  1.0
  Zn  Zn339  1  0.87451567  0.10467333  0.22620331  1.0
  Zn  Zn340  1  0.87451567  0.43800667  0.22620331  1.0
  Zn  Zn341  1  0.87451567  0.77134000  0.22620331  1.0
  Zn  Zn342  1  0.12548433  0.22866000  0.22620331  1.0
  Zn  Zn343  1  0.12548433  0.56199333  0.22620331  1.0
  Zn  Zn344  1  0.12548433  0.89532667  0.22620331  1.0
  Zn  Zn345  1  0.45881767  0.22866000  0.22620331  1.0
  Zn  Zn346  1  0.45881767  0.56199333  0.22620331  1.0
  Zn  Zn347  1  0.45881767  0.89532667  0.22620331  1.0
  Zn  Zn348  1  0.79215100  0.22866000  0.22620331  1.0
  Zn  Zn349  1  0.79215100  0.56199333  0.22620331  1.0
  Zn  Zn350  1  0.79215100  0.89532667  0.22620331  1.0
  Zn  Zn351  1  0.17926400  0.11258200  0.18101906  1.0
  Zn  Zn352  1  0.17926400  0.44591533  0.18101906  1.0
  Zn  Zn353  1  0.17926400  0.77924867  0.18101906  1.0
  Zn  Zn354  1  0.51259733  0.11258200  0.18101906  1.0
  Zn  Zn355  1  0.51259733  0.44591533  0.18101906  1.0
  Zn  Zn356  1  0.51259733  0.77924867  0.18101906  1.0
  Zn  Zn357  1  0.84593067  0.11258200  0.18101906  1.0
  Zn  Zn358  1  0.84593067  0.44591533  0.18101906  1.0
  Zn  Zn359  1  0.84593067  0.77924867  0.18101906  1.0
  Zn  Zn360  1  0.15406933  0.22075133  0.14638756  1.0
  Zn  Zn361  1  0.15406933  0.55408467  0.14638756  1.0
  Zn  Zn362  1  0.15406933  0.88741800  0.14638756  1.0
  Zn  Zn363  1  0.48740267  0.22075133  0.14638756  1.0
  Zn  Zn364  1  0.48740267  0.55408467  0.14638756  1.0
  Zn  Zn365  1  0.48740267  0.88741800  0.14638756  1.0
  Zn  Zn366  1  0.82073600  0.22075133  0.14638756  1.0
  Zn  Zn367  1  0.82073600  0.55408467  0.14638756  1.0
  Zn  Zn368  1  0.82073600  0.88741800  0.14638756  1.0
  Zn  Zn369  1  0.15406933  0.00790933  0.18101906  1.0
  Zn  Zn370  1  0.15406933  0.34124267  0.18101906  1.0
  Zn  Zn371  1  0.15406933  0.67457600  0.18101906  1.0
  Zn  Zn372  1  0.48740267  0.00790933  0.18101906  1.0
  Zn  Zn373  1  0.48740267  0.34124267  0.18101906  1.0
  Zn  Zn374  1  0.48740267  0.67457600  0.18101906  1.0
  Zn  Zn375  1  0.82073600  0.00790933  0.18101906  1.0
  Zn  Zn376  1  0.82073600  0.34124267  0.18101906  1.0
  Zn  Zn377  1  0.82073600  0.67457600  0.18101906  1.0
  Zn  Zn378  1  0.17926400  0.32542400  0.14638756  1.0
  Zn  Zn379  1  0.17926400  0.65875733  0.14638756  1.0
  Zn  Zn380  1  0.17926400  0.99209067  0.14638756  1.0
  Zn  Zn381  1  0.51259733  0.32542400  0.14638756  1.0
  Zn  Zn382  1  0.51259733  0.65875733  0.14638756  1.0
  Zn  Zn383  1  0.51259733  0.99209067  0.14638756  1.0
  Zn  Zn384  1  0.84593067  0.32542400  0.14638756  1.0
  Zn  Zn385  1  0.84593067  0.65875733  0.14638756  1.0
  Zn  Zn386  1  0.84593067  0.99209067  0.14638756  1.0
  Zn  Zn387  1  0.30004467  0.12733733  0.17860994  1.0
  Zn  Zn388  1  0.30004467  0.46067067  0.17860994  1.0
  Zn  Zn389  1  0.30004467  0.79400400  0.17860994  1.0
  Zn  Zn390  1  0.63337800  0.12733733  0.17860994  1.0
  Zn  Zn391  1  0.63337800  0.46067067  0.17860994  1.0
  Zn  Zn392  1  0.63337800  0.79400400  0.17860994  1.0
  Zn  Zn393  1  0.96671133  0.12733733  0.17860994  1.0
  Zn  Zn394  1  0.96671133  0.46067067  0.17860994  1.0
  Zn  Zn395  1  0.96671133  0.79400400  0.17860994  1.0
  Zn  Zn396  1  0.03328867  0.20599600  0.14879669  1.0
  Zn  Zn397  1  0.03328867  0.53932933  0.14879669  1.0
  Zn  Zn398  1  0.03328867  0.87266267  0.14879669  1.0
  Zn  Zn399  1  0.36662200  0.20599600  0.14879669  1.0
  Zn  Zn400  1  0.36662200  0.53932933  0.14879669  1.0
  Zn  Zn401  1  0.36662200  0.87266267  0.14879669  1.0
  Zn  Zn402  1  0.69995533  0.20599600  0.14879669  1.0
  Zn  Zn403  1  0.69995533  0.53932933  0.14879669  1.0
  Zn  Zn404  1  0.69995533  0.87266267  0.14879669  1.0
  Zn  Zn405  1  0.03328867  0.33291167  0.17860994  1.0
  Zn  Zn406  1  0.03328867  0.66624500  0.17860994  1.0
  Zn  Zn407  1  0.03328867  0.99957833  0.17860994  1.0
  Zn  Zn408  1  0.36662200  0.33291167  0.17860994  1.0
  Zn  Zn409  1  0.36662200  0.66624500  0.17860994  1.0
  Zn  Zn410  1  0.36662200  0.99957833  0.17860994  1.0
  Zn  Zn411  1  0.69995533  0.33291167  0.17860994  1.0
  Zn  Zn412  1  0.69995533  0.66624500  0.17860994  1.0
  Zn  Zn413  1  0.69995533  0.99957833  0.17860994  1.0
  Zn  Zn414  1  0.30004467  0.00042167  0.14879669  1.0
  Zn  Zn415  1  0.30004467  0.33375500  0.14879669  1.0
  Zn  Zn416  1  0.30004467  0.66708833  0.14879669  1.0
  Zn  Zn417  1  0.63337800  0.00042167  0.14879669  1.0
  Zn  Zn418  1  0.63337800  0.33375500  0.14879669  1.0
  Zn  Zn419  1  0.63337800  0.66708833  0.14879669  1.0
  Zn  Zn420  1  0.96671133  0.00042167  0.14879669  1.0
  Zn  Zn421  1  0.96671133  0.33375500  0.14879669  1.0
  Zn  Zn422  1  0.96671133  0.66708833  0.14879669  1.0
  Ni  Ni423  1  0.31528267  0.11408100  0.22620331  1.0
  Ni  Ni424  1  0.31528267  0.44741433  0.22620331  1.0
  Ni  Ni425  1  0.31528267  0.78074767  0.22620331  1.0
  Ni  Ni426  1  0.64861600  0.11408100  0.22620331  1.0
  Ni  Ni427  1  0.64861600  0.44741433  0.22620331  1.0
  Ni  Ni428  1  0.64861600  0.78074767  0.22620331  1.0
  Ni  Ni429  1  0.98194933  0.11408100  0.22620331  1.0
  Ni  Ni430  1  0.98194933  0.44741433  0.22620331  1.0
  Ni  Ni431  1  0.98194933  0.78074767  0.22620331  1.0
  Ni  Ni432  1  0.01805067  0.21925233  0.22620331  1.0
  Ni  Ni433  1  0.01805067  0.55258567  0.22620331  1.0
  Ni  Ni434  1  0.01805067  0.88591900  0.22620331  1.0
  Ni  Ni435  1  0.35138400  0.21925233  0.22620331  1.0
  Ni  Ni436  1  0.35138400  0.55258567  0.22620331  1.0
  Ni  Ni437  1  0.35138400  0.88591900  0.22620331  1.0
  Ni  Ni438  1  0.68471733  0.21925233  0.22620331  1.0
  Ni  Ni439  1  0.68471733  0.55258567  0.22620331  1.0
  Ni  Ni440  1  0.68471733  0.88591900  0.22620331  1.0
  Ni  Ni441  1  0.16666667  0.00000000  0.22620331  1.0
  Ni  Ni442  1  0.16666667  0.33333333  0.22620331  1.0
  Ni  Ni443  1  0.16666667  0.66666667  0.22620331  1.0
  Ni  Ni444  1  0.50000000  0.00000000  0.22620331  1.0
  Ni  Ni445  1  0.50000000  0.33333333  0.22620331  1.0
  Ni  Ni446  1  0.50000000  0.66666667  0.22620331  1.0
  Ni  Ni447  1  0.83333333  0.00000000  0.22620331  1.0
  Ni  Ni448  1  0.83333333  0.33333333  0.22620331  1.0
  Ni  Ni449  1  0.83333333  0.66666667  0.22620331  1.0
  Zn  Zn450  1  0.22964567  0.21854867  0.30178469  1.0
  Zn  Zn451  1  0.22964567  0.55188200  0.30178469  1.0
  Zn  Zn452  1  0.22964567  0.88521533  0.30178469  1.0
  Zn  Zn453  1  0.56297900  0.21854867  0.30178469  1.0
  Zn  Zn454  1  0.56297900  0.55188200  0.30178469  1.0
  Zn  Zn455  1  0.56297900  0.88521533  0.30178469  1.0
  Zn  Zn456  1  0.89631233  0.21854867  0.30178469  1.0
  Zn  Zn457  1  0.89631233  0.55188200  0.30178469  1.0
  Zn  Zn458  1  0.89631233  0.88521533  0.30178469  1.0
  Zn  Zn459  1  0.10368767  0.11478467  0.27562194  1.0
  Zn  Zn460  1  0.10368767  0.44811800  0.27562194  1.0
  Zn  Zn461  1  0.10368767  0.78145133  0.27562194  1.0
  Zn  Zn462  1  0.43702100  0.11478467  0.27562194  1.0
  Zn  Zn463  1  0.43702100  0.44811800  0.27562194  1.0
  Zn  Zn464  1  0.43702100  0.78145133  0.27562194  1.0
  Zn  Zn465  1  0.77035433  0.11478467  0.27562194  1.0
  Zn  Zn466  1  0.77035433  0.44811800  0.27562194  1.0
  Zn  Zn467  1  0.77035433  0.78145133  0.27562194  1.0
  Zn  Zn468  1  0.10368767  0.24656767  0.30178469  1.0
  Zn  Zn469  1  0.10368767  0.57990100  0.30178469  1.0
  Zn  Zn470  1  0.10368767  0.91323433  0.30178469  1.0
  Zn  Zn471  1  0.43702100  0.24656767  0.30178469  1.0
  Zn  Zn472  1  0.43702100  0.57990100  0.30178469  1.0
  Zn  Zn473  1  0.43702100  0.91323433  0.30178469  1.0
  Zn  Zn474  1  0.77035433  0.24656767  0.30178469  1.0
  Zn  Zn475  1  0.77035433  0.57990100  0.30178469  1.0
  Zn  Zn476  1  0.77035433  0.91323433  0.30178469  1.0
  Zn  Zn477  1  0.22964567  0.08676567  0.27562194  1.0
  Zn  Zn478  1  0.22964567  0.42009900  0.27562194  1.0
  Zn  Zn479  1  0.22964567  0.75343233  0.27562194  1.0
  Zn  Zn480  1  0.56297900  0.08676567  0.27562194  1.0
  Zn  Zn481  1  0.56297900  0.42009900  0.27562194  1.0
  Zn  Zn482  1  0.56297900  0.75343233  0.27562194  1.0
  Zn  Zn483  1  0.89631233  0.08676567  0.27562194  1.0
  Zn  Zn484  1  0.89631233  0.42009900  0.27562194  1.0
  Zn  Zn485  1  0.89631233  0.75343233  0.27562194  1.0
  Zn  Zn486  1  0.00000000  0.10747967  0.27059356  1.0
  Zn  Zn487  1  0.00000000  0.44081300  0.27059356  1.0
  Zn  Zn488  1  0.00000000  0.77414633  0.27059356  1.0
  Zn  Zn489  1  0.33333333  0.10747967  0.27059356  1.0
  Zn  Zn490  1  0.33333333  0.44081300  0.27059356  1.0
  Zn  Zn491  1  0.33333333  0.77414633  0.27059356  1.0
  Zn  Zn492  1  0.66666667  0.10747967  0.27059356  1.0
  Zn  Zn493  1  0.66666667  0.44081300  0.27059356  1.0
  Zn  Zn494  1  0.66666667  0.77414633  0.27059356  1.0
  Zn  Zn495  1  0.00000000  0.22585367  0.30681306  1.0
  Zn  Zn496  1  0.00000000  0.55918700  0.30681306  1.0
  Zn  Zn497  1  0.00000000  0.89252033  0.30681306  1.0
  Zn  Zn498  1  0.33333333  0.22585367  0.30681306  1.0
  Zn  Zn499  1  0.33333333  0.55918700  0.30681306  1.0
  Zn  Zn500  1  0.33333333  0.89252033  0.30681306  1.0
  Zn  Zn501  1  0.66666667  0.22585367  0.30681306  1.0
  Zn  Zn502  1  0.66666667  0.55918700  0.30681306  1.0
  Zn  Zn503  1  0.66666667  0.89252033  0.30681306  1.0
  Zn  Zn504  1  0.07190867  0.05647800  0.35120331  1.0
  Zn  Zn505  1  0.07190867  0.38981133  0.35120331  1.0
  Zn  Zn506  1  0.07190867  0.72314467  0.35120331  1.0
  Zn  Zn507  1  0.40524200  0.05647800  0.35120331  1.0
  Zn  Zn508  1  0.40524200  0.38981133  0.35120331  1.0
  Zn  Zn509  1  0.40524200  0.72314467  0.35120331  1.0
  Zn  Zn510  1  0.73857533  0.05647800  0.35120331  1.0
  Zn  Zn511  1  0.73857533  0.38981133  0.35120331  1.0
  Zn  Zn512  1  0.73857533  0.72314467  0.35120331  1.0
  Zn  Zn513  1  0.26142467  0.27685533  0.35120331  1.0
  Zn  Zn514  1  0.26142467  0.61018867  0.35120331  1.0
  Zn  Zn515  1  0.26142467  0.94352200  0.35120331  1.0
  Zn  Zn516  1  0.59475800  0.27685533  0.35120331  1.0
  Zn  Zn517  1  0.59475800  0.61018867  0.35120331  1.0
  Zn  Zn518  1  0.59475800  0.94352200  0.35120331  1.0
  Zn  Zn519  1  0.92809133  0.27685533  0.35120331  1.0
  Zn  Zn520  1  0.92809133  0.61018867  0.35120331  1.0
  Zn  Zn521  1  0.92809133  0.94352200  0.35120331  1.0
  Zn  Zn522  1  0.27457400  0.00792133  0.35120331  1.0
  Zn  Zn523  1  0.27457400  0.34125467  0.35120331  1.0
  Zn  Zn524  1  0.27457400  0.67458800  0.35120331  1.0
  Zn  Zn525  1  0.60790733  0.00792133  0.35120331  1.0
  Zn  Zn526  1  0.60790733  0.34125467  0.35120331  1.0
  Zn  Zn527  1  0.60790733  0.67458800  0.35120331  1.0
  Zn  Zn528  1  0.94124067  0.00792133  0.35120331  1.0
  Zn  Zn529  1  0.94124067  0.34125467  0.35120331  1.0
  Zn  Zn530  1  0.94124067  0.67458800  0.35120331  1.0
  Zn  Zn531  1  0.05875933  0.32541200  0.35120331  1.0
  Zn  Zn532  1  0.05875933  0.65874533  0.35120331  1.0
  Zn  Zn533  1  0.05875933  0.99207867  0.35120331  1.0
  Zn  Zn534  1  0.39209267  0.32541200  0.35120331  1.0
  Zn  Zn535  1  0.39209267  0.65874533  0.35120331  1.0
  Zn  Zn536  1  0.39209267  0.99207867  0.35120331  1.0
  Zn  Zn537  1  0.72542600  0.32541200  0.35120331  1.0
  Zn  Zn538  1  0.72542600  0.65874533  0.35120331  1.0
  Zn  Zn539  1  0.72542600  0.99207867  0.35120331  1.0
  Zn  Zn540  1  0.24247833  0.21591067  0.35120331  1.0
  Zn  Zn541  1  0.24247833  0.54924400  0.35120331  1.0
  Zn  Zn542  1  0.24247833  0.88257733  0.35120331  1.0
  Zn  Zn543  1  0.57581167  0.21591067  0.35120331  1.0
  Zn  Zn544  1  0.57581167  0.54924400  0.35120331  1.0
  Zn  Zn545  1  0.57581167  0.88257733  0.35120331  1.0
  Zn  Zn546  1  0.90914500  0.21591067  0.35120331  1.0
  Zn  Zn547  1  0.90914500  0.54924400  0.35120331  1.0
  Zn  Zn548  1  0.90914500  0.88257733  0.35120331  1.0
  Zn  Zn549  1  0.09085500  0.11742267  0.35120331  1.0
  Zn  Zn550  1  0.09085500  0.45075600  0.35120331  1.0
  Zn  Zn551  1  0.09085500  0.78408933  0.35120331  1.0
  Zn  Zn552  1  0.42418833  0.11742267  0.35120331  1.0
  Zn  Zn553  1  0.42418833  0.45075600  0.35120331  1.0
  Zn  Zn554  1  0.42418833  0.78408933  0.35120331  1.0
  Zn  Zn555  1  0.75752167  0.11742267  0.35120331  1.0
  Zn  Zn556  1  0.75752167  0.45075600  0.35120331  1.0
  Zn  Zn557  1  0.75752167  0.78408933  0.35120331  1.0
  Zn  Zn558  1  0.20784900  0.10467333  0.35120331  1.0
  Zn  Zn559  1  0.20784900  0.43800667  0.35120331  1.0
  Zn  Zn560  1  0.20784900  0.77134000  0.35120331  1.0
  Zn  Zn561  1  0.54118233  0.10467333  0.35120331  1.0
  Zn  Zn562  1  0.54118233  0.43800667  0.35120331  1.0
  Zn  Zn563  1  0.54118233  0.77134000  0.35120331  1.0
  Zn  Zn564  1  0.87451567  0.10467333  0.35120331  1.0
  Zn  Zn565  1  0.87451567  0.43800667  0.35120331  1.0
  Zn  Zn566  1  0.87451567  0.77134000  0.35120331  1.0
  Zn  Zn567  1  0.12548433  0.22866000  0.35120331  1.0
  Zn  Zn568  1  0.12548433  0.56199333  0.35120331  1.0
  Zn  Zn569  1  0.12548433  0.89532667  0.35120331  1.0
  Zn  Zn570  1  0.45881767  0.22866000  0.35120331  1.0
  Zn  Zn571  1  0.45881767  0.56199333  0.35120331  1.0
  Zn  Zn572  1  0.45881767  0.89532667  0.35120331  1.0
  Zn  Zn573  1  0.79215100  0.22866000  0.35120331  1.0
  Zn  Zn574  1  0.79215100  0.56199333  0.35120331  1.0
  Zn  Zn575  1  0.79215100  0.89532667  0.35120331  1.0
  Zn  Zn576  1  0.17926400  0.11258200  0.30601906  1.0
  Zn  Zn577  1  0.17926400  0.44591533  0.30601906  1.0
  Zn  Zn578  1  0.17926400  0.77924867  0.30601906  1.0
  Zn  Zn579  1  0.51259733  0.11258200  0.30601906  1.0
  Zn  Zn580  1  0.51259733  0.44591533  0.30601906  1.0
  Zn  Zn581  1  0.51259733  0.77924867  0.30601906  1.0
  Zn  Zn582  1  0.84593067  0.11258200  0.30601906  1.0
  Zn  Zn583  1  0.84593067  0.44591533  0.30601906  1.0
  Zn  Zn584  1  0.84593067  0.77924867  0.30601906  1.0
  Zn  Zn585  1  0.15406933  0.22075133  0.27138756  1.0
  Zn  Zn586  1  0.15406933  0.55408467  0.27138756  1.0
  Zn  Zn587  1  0.15406933  0.88741800  0.27138756  1.0
  Zn  Zn588  1  0.48740267  0.22075133  0.27138756  1.0
  Zn  Zn589  1  0.48740267  0.55408467  0.27138756  1.0
  Zn  Zn590  1  0.48740267  0.88741800  0.27138756  1.0
  Zn  Zn591  1  0.82073600  0.22075133  0.27138756  1.0
  Zn  Zn592  1  0.82073600  0.55408467  0.27138756  1.0
  Zn  Zn593  1  0.82073600  0.88741800  0.27138756  1.0
  Zn  Zn594  1  0.15406933  0.00790933  0.30601906  1.0
  Zn  Zn595  1  0.15406933  0.34124267  0.30601906  1.0
  Zn  Zn596  1  0.15406933  0.67457600  0.30601906  1.0
  Zn  Zn597  1  0.48740267  0.00790933  0.30601906  1.0
  Zn  Zn598  1  0.48740267  0.34124267  0.30601906  1.0
  Zn  Zn599  1  0.48740267  0.67457600  0.30601906  1.0
  Zn  Zn600  1  0.82073600  0.00790933  0.30601906  1.0
  Zn  Zn601  1  0.82073600  0.34124267  0.30601906  1.0
  Zn  Zn602  1  0.82073600  0.67457600  0.30601906  1.0
  Zn  Zn603  1  0.17926400  0.32542400  0.27138756  1.0
  Zn  Zn604  1  0.17926400  0.65875733  0.27138756  1.0
  Zn  Zn605  1  0.17926400  0.99209067  0.27138756  1.0
  Zn  Zn606  1  0.51259733  0.32542400  0.27138756  1.0
  Zn  Zn607  1  0.51259733  0.65875733  0.27138756  1.0
  Zn  Zn608  1  0.51259733  0.99209067  0.27138756  1.0
  Zn  Zn609  1  0.84593067  0.32542400  0.27138756  1.0
  Zn  Zn610  1  0.84593067  0.65875733  0.27138756  1.0
  Zn  Zn611  1  0.84593067  0.99209067  0.27138756  1.0
  Zn  Zn612  1  0.30004467  0.12733733  0.30360994  1.0
  Zn  Zn613  1  0.30004467  0.46067067  0.30360994  1.0
  Zn  Zn614  1  0.30004467  0.79400400  0.30360994  1.0
  Zn  Zn615  1  0.63337800  0.12733733  0.30360994  1.0
  Zn  Zn616  1  0.63337800  0.46067067  0.30360994  1.0
  Zn  Zn617  1  0.63337800  0.79400400  0.30360994  1.0
  Zn  Zn618  1  0.96671133  0.12733733  0.30360994  1.0
  Zn  Zn619  1  0.96671133  0.46067067  0.30360994  1.0
  Zn  Zn620  1  0.96671133  0.79400400  0.30360994  1.0
  Zn  Zn621  1  0.03328867  0.20599600  0.27379669  1.0
  Zn  Zn622  1  0.03328867  0.53932933  0.27379669  1.0
  Zn  Zn623  1  0.03328867  0.87266267  0.27379669  1.0
  Zn  Zn624  1  0.36662200  0.20599600  0.27379669  1.0
  Zn  Zn625  1  0.36662200  0.53932933  0.27379669  1.0
  Zn  Zn626  1  0.36662200  0.87266267  0.27379669  1.0
  Zn  Zn627  1  0.69995533  0.20599600  0.27379669  1.0
  Zn  Zn628  1  0.69995533  0.53932933  0.27379669  1.0
  Zn  Zn629  1  0.69995533  0.87266267  0.27379669  1.0
  Zn  Zn630  1  0.03328867  0.33291167  0.30360994  1.0
  Zn  Zn631  1  0.03328867  0.66624500  0.30360994  1.0
  Zn  Zn632  1  0.03328867  0.99957833  0.30360994  1.0
  Zn  Zn633  1  0.36662200  0.33291167  0.30360994  1.0
  Zn  Zn634  1  0.36662200  0.66624500  0.30360994  1.0
  Zn  Zn635  1  0.36662200  0.99957833  0.30360994  1.0
  Zn  Zn636  1  0.69995533  0.33291167  0.30360994  1.0
  Zn  Zn637  1  0.69995533  0.66624500  0.30360994  1.0
  Zn  Zn638  1  0.69995533  0.99957833  0.30360994  1.0
  Zn  Zn639  1  0.30004467  0.00042167  0.27379669  1.0
  Zn  Zn640  1  0.30004467  0.33375500  0.27379669  1.0
  Zn  Zn641  1  0.30004467  0.66708833  0.27379669  1.0
  Zn  Zn642  1  0.63337800  0.00042167  0.27379669  1.0
  Zn  Zn643  1  0.63337800  0.33375500  0.27379669  1.0
  Zn  Zn644  1  0.63337800  0.66708833  0.27379669  1.0
  Zn  Zn645  1  0.96671133  0.00042167  0.27379669  1.0
  Zn  Zn646  1  0.96671133  0.33375500  0.27379669  1.0
  Zn  Zn647  1  0.96671133  0.66708833  0.27379669  1.0
  Ni  Ni648  1  0.31528267  0.11408100  0.35120331  1.0
  Ni  Ni649  1  0.31528267  0.44741433  0.35120331  1.0
  Ni  Ni650  1  0.31528267  0.78074767  0.35120331  1.0
  Ni  Ni651  1  0.64861600  0.11408100  0.35120331  1.0
  Ni  Ni652  1  0.64861600  0.44741433  0.35120331  1.0
  Ni  Ni653  1  0.64861600  0.78074767  0.35120331  1.0
  Ni  Ni654  1  0.98194933  0.11408100  0.35120331  1.0
  Ni  Ni655  1  0.98194933  0.44741433  0.35120331  1.0
  Ni  Ni656  1  0.98194933  0.78074767  0.35120331  1.0
  Ni  Ni657  1  0.01805067  0.21925233  0.35120331  1.0
  Ni  Ni658  1  0.01805067  0.55258567  0.35120331  1.0
  Ni  Ni659  1  0.01805067  0.88591900  0.35120331  1.0
  Ni  Ni660  1  0.35138400  0.21925233  0.35120331  1.0
  Ni  Ni661  1  0.35138400  0.55258567  0.35120331  1.0
  Ni  Ni662  1  0.35138400  0.88591900  0.35120331  1.0
  Ni  Ni663  1  0.68471733  0.21925233  0.35120331  1.0
  Ni  Ni664  1  0.68471733  0.55258567  0.35120331  1.0
  Ni  Ni665  1  0.68471733  0.88591900  0.35120331  1.0
  Ni  Ni666  1  0.16666667  0.00000000  0.35120331  1.0
  Ni  Ni667  1  0.16666667  0.33333333  0.35120331  1.0
  Ni  Ni668  1  0.16666667  0.66666667  0.35120331  1.0
  Ni  Ni669  1  0.50000000  0.00000000  0.35120331  1.0
  Ni  Ni670  1  0.50000000  0.33333333  0.35120331  1.0
  Ni  Ni671  1  0.50000000  0.66666667  0.35120331  1.0
  Ni  Ni672  1  0.83333333  0.00000000  0.35120331  1.0
  Ni  Ni673  1  0.83333333  0.33333333  0.35120331  1.0
  Ni  Ni674  1  0.83333333  0.66666667  0.35120331  1.0
