# generated using pymatgen
data_Zn3Ni
_symmetry_space_group_name_H-M   'P 1'
_cell_length_a   10.97010599
_cell_length_b   21.00140886
_cell_length_c   29.91807447
_cell_angle_alpha   91.86566938
_cell_angle_beta   89.99999999
_cell_angle_gamma   105.13982228
_symmetry_Int_Tables_number   1
_chemical_formula_structural   Zn3Ni
_chemical_formula_sum   'Zn162 Ni54'
_cell_volume   6649.73219573
_cell_formula_units_Z   54
loop_
 _symmetry_equiv_pos_site_id
 _symmetry_equiv_pos_as_xyz
  1  'x, y, z'
loop_
 _atom_site_type_symbol
 _atom_site_label
 _atom_site_symmetry_multiplicity
 _atom_site_fract_x
 _atom_site_fract_y
 _atom_site_fract_z
 _atom_site_occupancy
  Ni  Ni0  1  0.27083333  0.18750000  0.06250000  1.0
  Ni  Ni1  1  0.27083333  0.52083333  0.06250000  1.0
  Ni  Ni2  1  0.27083333  0.85416667  0.06250000  1.0
  Ni  Ni3  1  0.60416667  0.18750000  0.06250000  1.0
  Ni  Ni4  1  0.60416667  0.52083333  0.06250000  1.0
  Ni  Ni5  1  0.60416667  0.85416667  0.06250000  1.0
  Ni  Ni6  1  0.93750000  0.18750000  0.06250000  1.0
  Ni  Ni7  1  0.93750000  0.52083333  0.06250000  1.0
  Ni  Ni8  1  0.93750000  0.85416667  0.06250000  1.0
  Ni  Ni9  1  0.19940476  0.04464286  0.13392857  1.0
  Ni  Ni10  1  0.19940476  0.37797619  0.13392857  1.0
  Ni  Ni11  1  0.19940476  0.71130952  0.13392857  1.0
  Ni  Ni12  1  0.53273810  0.04464286  0.13392857  1.0
  Ni  Ni13  1  0.53273810  0.37797619  0.13392857  1.0
  Ni  Ni14  1  0.53273810  0.71130952  0.13392857  1.0
  Ni  Ni15  1  0.86607143  0.04464286  0.13392857  1.0
  Ni  Ni16  1  0.86607143  0.37797619  0.13392857  1.0
  Ni  Ni17  1  0.86607143  0.71130952  0.13392857  1.0
  Ni  Ni18  1  0.12797619  0.23511905  0.20535714  1.0
  Ni  Ni19  1  0.12797619  0.56845238  0.20535714  1.0
  Ni  Ni20  1  0.12797619  0.90178571  0.20535714  1.0
  Ni  Ni21  1  0.46130952  0.23511905  0.20535714  1.0
  Ni  Ni22  1  0.46130952  0.56845238  0.20535714  1.0
  Ni  Ni23  1  0.46130952  0.90178571  0.20535714  1.0
  Ni  Ni24  1  0.79464286  0.23511905  0.20535714  1.0
  Ni  Ni25  1  0.79464286  0.56845238  0.20535714  1.0
  Ni  Ni26  1  0.79464286  0.90178571  0.20535714  1.0
  Ni  Ni27  1  0.05654762  0.09226190  0.27678571  1.0
  Ni  Ni28  1  0.05654762  0.42559524  0.27678571  1.0
  Ni  Ni29  1  0.05654762  0.75892857  0.27678571  1.0
  Ni  Ni30  1  0.38988095  0.09226190  0.27678571  1.0
  Ni  Ni31  1  0.38988095  0.42559524  0.27678571  1.0
  Ni  Ni32  1  0.38988095  0.75892857  0.27678571  1.0
  Ni  Ni33  1  0.72321429  0.09226190  0.27678571  1.0
  Ni  Ni34  1  0.72321429  0.42559524  0.27678571  1.0
  Ni  Ni35  1  0.72321429  0.75892857  0.27678571  1.0
  Ni  Ni36  1  0.31845238  0.28273810  0.34821429  1.0
  Ni  Ni37  1  0.31845238  0.61607143  0.34821429  1.0
  Ni  Ni38  1  0.31845238  0.94940476  0.34821429  1.0
  Ni  Ni39  1  0.65178571  0.28273810  0.34821429  1.0
  Ni  Ni40  1  0.65178571  0.61607143  0.34821429  1.0
  Ni  Ni41  1  0.65178571  0.94940476  0.34821429  1.0
  Ni  Ni42  1  0.98511905  0.28273810  0.34821429  1.0
  Ni  Ni43  1  0.98511905  0.61607143  0.34821429  1.0
  Ni  Ni44  1  0.98511905  0.94940476  0.34821429  1.0
  Ni  Ni45  1  0.24702381  0.13988095  0.41964286  1.0
  Ni  Ni46  1  0.24702381  0.47321429  0.41964286  1.0
  Ni  Ni47  1  0.24702381  0.80654762  0.41964286  1.0
  Ni  Ni48  1  0.58035714  0.13988095  0.41964286  1.0
  Ni  Ni49  1  0.58035714  0.47321429  0.41964286  1.0
  Ni  Ni50  1  0.58035714  0.80654762  0.41964286  1.0
  Ni  Ni51  1  0.91369048  0.13988095  0.41964286  1.0
  Ni  Ni52  1  0.91369048  0.47321429  0.41964286  1.0
  Ni  Ni53  1  0.91369048  0.80654762  0.41964286  1.0
  Zn  Zn54  1  0.13392857  0.24702381  0.11607143  1.0
  Zn  Zn55  1  0.13392857  0.58035714  0.11607143  1.0
  Zn  Zn56  1  0.13392857  0.91369048  0.11607143  1.0
  Zn  Zn57  1  0.46726190  0.24702381  0.11607143  1.0
  Zn  Zn58  1  0.46726190  0.58035714  0.11607143  1.0
  Zn  Zn59  1  0.46726190  0.91369048  0.11607143  1.0
  Zn  Zn60  1  0.80059524  0.24702381  0.11607143  1.0
  Zn  Zn61  1  0.80059524  0.58035714  0.11607143  1.0
  Zn  Zn62  1  0.80059524  0.91369048  0.11607143  1.0
  Zn  Zn63  1  0.20535714  0.05654762  0.04464286  1.0
  Zn  Zn64  1  0.20535714  0.38988095  0.04464286  1.0
  Zn  Zn65  1  0.20535714  0.72321429  0.04464286  1.0
  Zn  Zn66  1  0.53869048  0.05654762  0.04464286  1.0
  Zn  Zn67  1  0.53869048  0.38988095  0.04464286  1.0
  Zn  Zn68  1  0.53869048  0.72321429  0.04464286  1.0
  Zn  Zn69  1  0.87202381  0.05654762  0.04464286  1.0
  Zn  Zn70  1  0.87202381  0.38988095  0.04464286  1.0
  Zn  Zn71  1  0.87202381  0.72321429  0.04464286  1.0
  Zn  Zn72  1  0.07440476  0.12797619  0.00892857  1.0
  Zn  Zn73  1  0.07440476  0.46130952  0.00892857  1.0
  Zn  Zn74  1  0.07440476  0.79464286  0.00892857  1.0
  Zn  Zn75  1  0.40773810  0.12797619  0.00892857  1.0
  Zn  Zn76  1  0.40773810  0.46130952  0.00892857  1.0
  Zn  Zn77  1  0.40773810  0.79464286  0.00892857  1.0
  Zn  Zn78  1  0.74107143  0.12797619  0.00892857  1.0
  Zn  Zn79  1  0.74107143  0.46130952  0.00892857  1.0
  Zn  Zn80  1  0.74107143  0.79464286  0.00892857  1.0
  Zn  Zn81  1  0.00297619  0.31845238  0.08035714  1.0
  Zn  Zn82  1  0.00297619  0.65178571  0.08035714  1.0
  Zn  Zn83  1  0.00297619  0.98511905  0.08035714  1.0
  Zn  Zn84  1  0.33630952  0.31845238  0.08035714  1.0
  Zn  Zn85  1  0.33630952  0.65178571  0.08035714  1.0
  Zn  Zn86  1  0.33630952  0.98511905  0.08035714  1.0
  Zn  Zn87  1  0.66964286  0.31845238  0.08035714  1.0
  Zn  Zn88  1  0.66964286  0.65178571  0.08035714  1.0
  Zn  Zn89  1  0.66964286  0.98511905  0.08035714  1.0
  Zn  Zn90  1  0.06845238  0.11607143  0.09821429  1.0
  Zn  Zn91  1  0.06845238  0.44940476  0.09821429  1.0
  Zn  Zn92  1  0.06845238  0.78273810  0.09821429  1.0
  Zn  Zn93  1  0.40178571  0.11607143  0.09821429  1.0
  Zn  Zn94  1  0.40178571  0.44940476  0.09821429  1.0
  Zn  Zn95  1  0.40178571  0.78273810  0.09821429  1.0
  Zn  Zn96  1  0.73511905  0.11607143  0.09821429  1.0
  Zn  Zn97  1  0.73511905  0.44940476  0.09821429  1.0
  Zn  Zn98  1  0.73511905  0.78273810  0.09821429  1.0
  Zn  Zn99  1  0.13988095  0.25892857  0.02678571  1.0
  Zn  Zn100  1  0.13988095  0.59226190  0.02678571  1.0
  Zn  Zn101  1  0.13988095  0.92559524  0.02678571  1.0
  Zn  Zn102  1  0.47321429  0.25892857  0.02678571  1.0
  Zn  Zn103  1  0.47321429  0.59226190  0.02678571  1.0
  Zn  Zn104  1  0.47321429  0.92559524  0.02678571  1.0
  Zn  Zn105  1  0.80654762  0.25892857  0.02678571  1.0
  Zn  Zn106  1  0.80654762  0.59226190  0.02678571  1.0
  Zn  Zn107  1  0.80654762  0.92559524  0.02678571  1.0
  Zn  Zn108  1  0.32440476  0.29464286  0.25892857  1.0
  Zn  Zn109  1  0.32440476  0.62797619  0.25892857  1.0
  Zn  Zn110  1  0.32440476  0.96130952  0.25892857  1.0
  Zn  Zn111  1  0.65773810  0.29464286  0.25892857  1.0
  Zn  Zn112  1  0.65773810  0.62797619  0.25892857  1.0
  Zn  Zn113  1  0.65773810  0.96130952  0.25892857  1.0
  Zn  Zn114  1  0.99107143  0.29464286  0.25892857  1.0
  Zn  Zn115  1  0.99107143  0.62797619  0.25892857  1.0
  Zn  Zn116  1  0.99107143  0.96130952  0.25892857  1.0
  Zn  Zn117  1  0.06250000  0.10416667  0.18750000  1.0
  Zn  Zn118  1  0.06250000  0.43750000  0.18750000  1.0
  Zn  Zn119  1  0.06250000  0.77083333  0.18750000  1.0
  Zn  Zn120  1  0.39583333  0.10416667  0.18750000  1.0
  Zn  Zn121  1  0.39583333  0.43750000  0.18750000  1.0
  Zn  Zn122  1  0.39583333  0.77083333  0.18750000  1.0
  Zn  Zn123  1  0.72916667  0.10416667  0.18750000  1.0
  Zn  Zn124  1  0.72916667  0.43750000  0.18750000  1.0
  Zn  Zn125  1  0.72916667  0.77083333  0.18750000  1.0
  Zn  Zn126  1  0.26488095  0.17559524  0.15178571  1.0
  Zn  Zn127  1  0.26488095  0.50892857  0.15178571  1.0
  Zn  Zn128  1  0.26488095  0.84226190  0.15178571  1.0
  Zn  Zn129  1  0.59821429  0.17559524  0.15178571  1.0
  Zn  Zn130  1  0.59821429  0.50892857  0.15178571  1.0
  Zn  Zn131  1  0.59821429  0.84226190  0.15178571  1.0
  Zn  Zn132  1  0.93154762  0.17559524  0.15178571  1.0
  Zn  Zn133  1  0.93154762  0.50892857  0.15178571  1.0
  Zn  Zn134  1  0.93154762  0.84226190  0.15178571  1.0
  Zn  Zn135  1  0.19345238  0.03273810  0.22321429  1.0
  Zn  Zn136  1  0.19345238  0.36607143  0.22321429  1.0
  Zn  Zn137  1  0.19345238  0.69940476  0.22321429  1.0
  Zn  Zn138  1  0.52678571  0.03273810  0.22321429  1.0
  Zn  Zn139  1  0.52678571  0.36607143  0.22321429  1.0
  Zn  Zn140  1  0.52678571  0.69940476  0.22321429  1.0
  Zn  Zn141  1  0.86011905  0.03273810  0.22321429  1.0
  Zn  Zn142  1  0.86011905  0.36607143  0.22321429  1.0
  Zn  Zn143  1  0.86011905  0.69940476  0.22321429  1.0
  Zn  Zn144  1  0.25892857  0.16369048  0.24107143  1.0
  Zn  Zn145  1  0.25892857  0.49702381  0.24107143  1.0
  Zn  Zn146  1  0.25892857  0.83035714  0.24107143  1.0
  Zn  Zn147  1  0.59226190  0.16369048  0.24107143  1.0
  Zn  Zn148  1  0.59226190  0.49702381  0.24107143  1.0
  Zn  Zn149  1  0.59226190  0.83035714  0.24107143  1.0
  Zn  Zn150  1  0.92559524  0.16369048  0.24107143  1.0
  Zn  Zn151  1  0.92559524  0.49702381  0.24107143  1.0
  Zn  Zn152  1  0.92559524  0.83035714  0.24107143  1.0
  Zn  Zn153  1  0.33035714  0.30654762  0.16964286  1.0
  Zn  Zn154  1  0.33035714  0.63988095  0.16964286  1.0
  Zn  Zn155  1  0.33035714  0.97321429  0.16964286  1.0
  Zn  Zn156  1  0.66369048  0.30654762  0.16964286  1.0
  Zn  Zn157  1  0.66369048  0.63988095  0.16964286  1.0
  Zn  Zn158  1  0.66369048  0.97321429  0.16964286  1.0
  Zn  Zn159  1  0.99702381  0.30654762  0.16964286  1.0
  Zn  Zn160  1  0.99702381  0.63988095  0.16964286  1.0
  Zn  Zn161  1  0.99702381  0.97321429  0.16964286  1.0
  Zn  Zn162  1  0.18154762  0.00892857  0.40178571  1.0
  Zn  Zn163  1  0.18154762  0.34226190  0.40178571  1.0
  Zn  Zn164  1  0.18154762  0.67559524  0.40178571  1.0
  Zn  Zn165  1  0.51488095  0.00892857  0.40178571  1.0
  Zn  Zn166  1  0.51488095  0.34226190  0.40178571  1.0
  Zn  Zn167  1  0.51488095  0.67559524  0.40178571  1.0
  Zn  Zn168  1  0.84821429  0.00892857  0.40178571  1.0
  Zn  Zn169  1  0.84821429  0.34226190  0.40178571  1.0
  Zn  Zn170  1  0.84821429  0.67559524  0.40178571  1.0
  Zn  Zn171  1  0.25297619  0.15178571  0.33035714  1.0
  Zn  Zn172  1  0.25297619  0.48511905  0.33035714  1.0
  Zn  Zn173  1  0.25297619  0.81845238  0.33035714  1.0
  Zn  Zn174  1  0.58630952  0.15178571  0.33035714  1.0
  Zn  Zn175  1  0.58630952  0.48511905  0.33035714  1.0
  Zn  Zn176  1  0.58630952  0.81845238  0.33035714  1.0
  Zn  Zn177  1  0.91964286  0.15178571  0.33035714  1.0
  Zn  Zn178  1  0.91964286  0.48511905  0.33035714  1.0
  Zn  Zn179  1  0.91964286  0.81845238  0.33035714  1.0
  Zn  Zn180  1  0.12202381  0.22321429  0.29464286  1.0
  Zn  Zn181  1  0.12202381  0.55654762  0.29464286  1.0
  Zn  Zn182  1  0.12202381  0.88988095  0.29464286  1.0
  Zn  Zn183  1  0.45535714  0.22321429  0.29464286  1.0
  Zn  Zn184  1  0.45535714  0.55654762  0.29464286  1.0
  Zn  Zn185  1  0.45535714  0.88988095  0.29464286  1.0
  Zn  Zn186  1  0.78869048  0.22321429  0.29464286  1.0
  Zn  Zn187  1  0.78869048  0.55654762  0.29464286  1.0
  Zn  Zn188  1  0.78869048  0.88988095  0.29464286  1.0
  Zn  Zn189  1  0.05059524  0.08035714  0.36607143  1.0
  Zn  Zn190  1  0.05059524  0.41369048  0.36607143  1.0
  Zn  Zn191  1  0.05059524  0.74702381  0.36607143  1.0
  Zn  Zn192  1  0.38392857  0.08035714  0.36607143  1.0
  Zn  Zn193  1  0.38392857  0.41369048  0.36607143  1.0
  Zn  Zn194  1  0.38392857  0.74702381  0.36607143  1.0
  Zn  Zn195  1  0.71726190  0.08035714  0.36607143  1.0
  Zn  Zn196  1  0.71726190  0.41369048  0.36607143  1.0
  Zn  Zn197  1  0.71726190  0.74702381  0.36607143  1.0
  Zn  Zn198  1  0.11607143  0.21130952  0.38392857  1.0
  Zn  Zn199  1  0.11607143  0.54464286  0.38392857  1.0
  Zn  Zn200  1  0.11607143  0.87797619  0.38392857  1.0
  Zn  Zn201  1  0.44940476  0.21130952  0.38392857  1.0
  Zn  Zn202  1  0.44940476  0.54464286  0.38392857  1.0
  Zn  Zn203  1  0.44940476  0.87797619  0.38392857  1.0
  Zn  Zn204  1  0.78273810  0.21130952  0.38392857  1.0
  Zn  Zn205  1  0.78273810  0.54464286  0.38392857  1.0
  Zn  Zn206  1  0.78273810  0.87797619  0.38392857  1.0
  Zn  Zn207  1  0.18750000  0.02083333  0.31250000  1.0
  Zn  Zn208  1  0.18750000  0.35416667  0.31250000  1.0
  Zn  Zn209  1  0.18750000  0.68750000  0.31250000  1.0
  Zn  Zn210  1  0.52083333  0.02083333  0.31250000  1.0
  Zn  Zn211  1  0.52083333  0.35416667  0.31250000  1.0
  Zn  Zn212  1  0.52083333  0.68750000  0.31250000  1.0
  Zn  Zn213  1  0.85416667  0.02083333  0.31250000  1.0
  Zn  Zn214  1  0.85416667  0.35416667  0.31250000  1.0
  Zn  Zn215  1  0.85416667  0.68750000  0.31250000  1.0
