# generated using pymatgen
data_Zn3Ni
_symmetry_space_group_name_H-M   'P 1'
_cell_length_a   23.68130998
_cell_length_b   39.53059649
_cell_length_c   56.62122900
_cell_angle_alpha   30.77425483
_cell_angle_beta   33.22956394
_cell_angle_gamma   26.02610723
_symmetry_Int_Tables_number   1
_chemical_formula_structural   Zn3Ni
_chemical_formula_sum   'Zn270 Ni90'
_cell_volume   11399.54090697
_cell_formula_units_Z   90
loop_
 _symmetry_equiv_pos_site_id
 _symmetry_equiv_pos_as_xyz
  1  'x, y, z'
loop_
 _atom_site_type_symbol
 _atom_site_label
 _atom_site_symmetry_multiplicity
 _atom_site_fract_x
 _atom_site_fract_y
 _atom_site_fract_z
 _atom_site_occupancy
  Zn  Zn0  1  0.25000000  0.25000000  0.05208333  1.0
  Zn  Zn1  1  0.25000000  0.58333333  0.05208333  1.0
  Zn  Zn2  1  0.25000000  0.91666667  0.05208333  1.0
  Zn  Zn3  1  0.58333333  0.25000000  0.05208333  1.0
  Zn  Zn4  1  0.58333333  0.58333333  0.05208333  1.0
  Zn  Zn5  1  0.58333333  0.91666667  0.05208333  1.0
  Zn  Zn6  1  0.91666667  0.25000000  0.05208333  1.0
  Zn  Zn7  1  0.91666667  0.58333333  0.05208333  1.0
  Zn  Zn8  1  0.91666667  0.91666667  0.05208333  1.0
  Zn  Zn9  1  0.25000000  0.08333333  0.01041667  1.0
  Zn  Zn10  1  0.25000000  0.41666667  0.01041667  1.0
  Zn  Zn11  1  0.25000000  0.75000000  0.01041667  1.0
  Zn  Zn12  1  0.58333333  0.08333333  0.01041667  1.0
  Zn  Zn13  1  0.58333333  0.41666667  0.01041667  1.0
  Zn  Zn14  1  0.58333333  0.75000000  0.01041667  1.0
  Zn  Zn15  1  0.91666667  0.08333333  0.01041667  1.0
  Zn  Zn16  1  0.91666667  0.41666667  0.01041667  1.0
  Zn  Zn17  1  0.91666667  0.75000000  0.01041667  1.0
  Zn  Zn18  1  0.08333333  0.25000000  0.05208333  1.0
  Zn  Zn19  1  0.08333333  0.58333333  0.05208333  1.0
  Zn  Zn20  1  0.08333333  0.91666667  0.05208333  1.0
  Zn  Zn21  1  0.41666667  0.25000000  0.05208333  1.0
  Zn  Zn22  1  0.41666667  0.58333333  0.05208333  1.0
  Zn  Zn23  1  0.41666667  0.91666667  0.05208333  1.0
  Zn  Zn24  1  0.75000000  0.25000000  0.05208333  1.0
  Zn  Zn25  1  0.75000000  0.58333333  0.05208333  1.0
  Zn  Zn26  1  0.75000000  0.91666667  0.05208333  1.0
  Zn  Zn27  1  0.08333333  0.08333333  0.01041667  1.0
  Zn  Zn28  1  0.08333333  0.41666667  0.01041667  1.0
  Zn  Zn29  1  0.08333333  0.75000000  0.01041667  1.0
  Zn  Zn30  1  0.41666667  0.08333333  0.01041667  1.0
  Zn  Zn31  1  0.41666667  0.41666667  0.01041667  1.0
  Zn  Zn32  1  0.41666667  0.75000000  0.01041667  1.0
  Zn  Zn33  1  0.75000000  0.08333333  0.01041667  1.0
  Zn  Zn34  1  0.75000000  0.41666667  0.01041667  1.0
  Zn  Zn35  1  0.75000000  0.75000000  0.01041667  1.0
  Zn  Zn36  1  0.16666667  0.16666667  0.03125000  1.0
  Zn  Zn37  1  0.16666667  0.50000000  0.03125000  1.0
  Zn  Zn38  1  0.16666667  0.83333333  0.03125000  1.0
  Zn  Zn39  1  0.50000000  0.16666667  0.03125000  1.0
  Zn  Zn40  1  0.50000000  0.50000000  0.03125000  1.0
  Zn  Zn41  1  0.50000000  0.83333333  0.03125000  1.0
  Zn  Zn42  1  0.83333333  0.16666667  0.03125000  1.0
  Zn  Zn43  1  0.83333333  0.50000000  0.03125000  1.0
  Zn  Zn44  1  0.83333333  0.83333333  0.03125000  1.0
  Zn  Zn45  1  0.16666667  0.00000000  0.07291667  1.0
  Zn  Zn46  1  0.16666667  0.33333333  0.07291667  1.0
  Zn  Zn47  1  0.16666667  0.66666667  0.07291667  1.0
  Zn  Zn48  1  0.50000000  0.00000000  0.07291667  1.0
  Zn  Zn49  1  0.50000000  0.33333333  0.07291667  1.0
  Zn  Zn50  1  0.50000000  0.66666667  0.07291667  1.0
  Zn  Zn51  1  0.83333333  0.00000000  0.07291667  1.0
  Zn  Zn52  1  0.83333333  0.33333333  0.07291667  1.0
  Zn  Zn53  1  0.83333333  0.66666667  0.07291667  1.0
  Ni  Ni54  1  0.00000000  0.16666667  0.03125000  1.0
  Ni  Ni55  1  0.00000000  0.50000000  0.03125000  1.0
  Ni  Ni56  1  0.00000000  0.83333333  0.03125000  1.0
  Ni  Ni57  1  0.33333333  0.16666667  0.03125000  1.0
  Ni  Ni58  1  0.33333333  0.50000000  0.03125000  1.0
  Ni  Ni59  1  0.33333333  0.83333333  0.03125000  1.0
  Ni  Ni60  1  0.66666667  0.16666667  0.03125000  1.0
  Ni  Ni61  1  0.66666667  0.50000000  0.03125000  1.0
  Ni  Ni62  1  0.66666667  0.83333333  0.03125000  1.0
  Ni  Ni63  1  0.00000000  0.00000000  0.07291667  1.0
  Ni  Ni64  1  0.00000000  0.33333333  0.07291667  1.0
  Ni  Ni65  1  0.00000000  0.66666667  0.07291667  1.0
  Ni  Ni66  1  0.33333333  0.00000000  0.07291667  1.0
  Ni  Ni67  1  0.33333333  0.33333333  0.07291667  1.0
  Ni  Ni68  1  0.33333333  0.66666667  0.07291667  1.0
  Ni  Ni69  1  0.66666667  0.00000000  0.07291667  1.0
  Ni  Ni70  1  0.66666667  0.33333333  0.07291667  1.0
  Ni  Ni71  1  0.66666667  0.66666667  0.07291667  1.0
  Zn  Zn72  1  0.25000000  0.25000000  0.13541667  1.0
  Zn  Zn73  1  0.25000000  0.58333333  0.13541667  1.0
  Zn  Zn74  1  0.25000000  0.91666667  0.13541667  1.0
  Zn  Zn75  1  0.58333333  0.25000000  0.13541667  1.0
  Zn  Zn76  1  0.58333333  0.58333333  0.13541667  1.0
  Zn  Zn77  1  0.58333333  0.91666667  0.13541667  1.0
  Zn  Zn78  1  0.91666667  0.25000000  0.13541667  1.0
  Zn  Zn79  1  0.91666667  0.58333333  0.13541667  1.0
  Zn  Zn80  1  0.91666667  0.91666667  0.13541667  1.0
  Zn  Zn81  1  0.25000000  0.08333333  0.09375000  1.0
  Zn  Zn82  1  0.25000000  0.41666667  0.09375000  1.0
  Zn  Zn83  1  0.25000000  0.75000000  0.09375000  1.0
  Zn  Zn84  1  0.58333333  0.08333333  0.09375000  1.0
  Zn  Zn85  1  0.58333333  0.41666667  0.09375000  1.0
  Zn  Zn86  1  0.58333333  0.75000000  0.09375000  1.0
  Zn  Zn87  1  0.91666667  0.08333333  0.09375000  1.0
  Zn  Zn88  1  0.91666667  0.41666667  0.09375000  1.0
  Zn  Zn89  1  0.91666667  0.75000000  0.09375000  1.0
  Zn  Zn90  1  0.08333333  0.25000000  0.13541667  1.0
  Zn  Zn91  1  0.08333333  0.58333333  0.13541667  1.0
  Zn  Zn92  1  0.08333333  0.91666667  0.13541667  1.0
  Zn  Zn93  1  0.41666667  0.25000000  0.13541667  1.0
  Zn  Zn94  1  0.41666667  0.58333333  0.13541667  1.0
  Zn  Zn95  1  0.41666667  0.91666667  0.13541667  1.0
  Zn  Zn96  1  0.75000000  0.25000000  0.13541667  1.0
  Zn  Zn97  1  0.75000000  0.58333333  0.13541667  1.0
  Zn  Zn98  1  0.75000000  0.91666667  0.13541667  1.0
  Zn  Zn99  1  0.08333333  0.08333333  0.09375000  1.0
  Zn  Zn100  1  0.08333333  0.41666667  0.09375000  1.0
  Zn  Zn101  1  0.08333333  0.75000000  0.09375000  1.0
  Zn  Zn102  1  0.41666667  0.08333333  0.09375000  1.0
  Zn  Zn103  1  0.41666667  0.41666667  0.09375000  1.0
  Zn  Zn104  1  0.41666667  0.75000000  0.09375000  1.0
  Zn  Zn105  1  0.75000000  0.08333333  0.09375000  1.0
  Zn  Zn106  1  0.75000000  0.41666667  0.09375000  1.0
  Zn  Zn107  1  0.75000000  0.75000000  0.09375000  1.0
  Zn  Zn108  1  0.16666667  0.16666667  0.11458333  1.0
  Zn  Zn109  1  0.16666667  0.50000000  0.11458333  1.0
  Zn  Zn110  1  0.16666667  0.83333333  0.11458333  1.0
  Zn  Zn111  1  0.50000000  0.16666667  0.11458333  1.0
  Zn  Zn112  1  0.50000000  0.50000000  0.11458333  1.0
  Zn  Zn113  1  0.50000000  0.83333333  0.11458333  1.0
  Zn  Zn114  1  0.83333333  0.16666667  0.11458333  1.0
  Zn  Zn115  1  0.83333333  0.50000000  0.11458333  1.0
  Zn  Zn116  1  0.83333333  0.83333333  0.11458333  1.0
  Zn  Zn117  1  0.16666667  0.00000000  0.15625000  1.0
  Zn  Zn118  1  0.16666667  0.33333333  0.15625000  1.0
  Zn  Zn119  1  0.16666667  0.66666667  0.15625000  1.0
  Zn  Zn120  1  0.50000000  0.00000000  0.15625000  1.0
  Zn  Zn121  1  0.50000000  0.33333333  0.15625000  1.0
  Zn  Zn122  1  0.50000000  0.66666667  0.15625000  1.0
  Zn  Zn123  1  0.83333333  0.00000000  0.15625000  1.0
  Zn  Zn124  1  0.83333333  0.33333333  0.15625000  1.0
  Zn  Zn125  1  0.83333333  0.66666667  0.15625000  1.0
  Ni  Ni126  1  0.00000000  0.16666667  0.11458333  1.0
  Ni  Ni127  1  0.00000000  0.50000000  0.11458333  1.0
  Ni  Ni128  1  0.00000000  0.83333333  0.11458333  1.0
  Ni  Ni129  1  0.33333333  0.16666667  0.11458333  1.0
  Ni  Ni130  1  0.33333333  0.50000000  0.11458333  1.0
  Ni  Ni131  1  0.33333333  0.83333333  0.11458333  1.0
  Ni  Ni132  1  0.66666667  0.16666667  0.11458333  1.0
  Ni  Ni133  1  0.66666667  0.50000000  0.11458333  1.0
  Ni  Ni134  1  0.66666667  0.83333333  0.11458333  1.0
  Ni  Ni135  1  0.00000000  0.00000000  0.15625000  1.0
  Ni  Ni136  1  0.00000000  0.33333333  0.15625000  1.0
  Ni  Ni137  1  0.00000000  0.66666667  0.15625000  1.0
  Ni  Ni138  1  0.33333333  0.00000000  0.15625000  1.0
  Ni  Ni139  1  0.33333333  0.33333333  0.15625000  1.0
  Ni  Ni140  1  0.33333333  0.66666667  0.15625000  1.0
  Ni  Ni141  1  0.66666667  0.00000000  0.15625000  1.0
  Ni  Ni142  1  0.66666667  0.33333333  0.15625000  1.0
  Ni  Ni143  1  0.66666667  0.66666667  0.15625000  1.0
  Zn  Zn144  1  0.25000000  0.25000000  0.21875000  1.0
  Zn  Zn145  1  0.25000000  0.58333333  0.21875000  1.0
  Zn  Zn146  1  0.25000000  0.91666667  0.21875000  1.0
  Zn  Zn147  1  0.58333333  0.25000000  0.21875000  1.0
  Zn  Zn148  1  0.58333333  0.58333333  0.21875000  1.0
  Zn  Zn149  1  0.58333333  0.91666667  0.21875000  1.0
  Zn  Zn150  1  0.91666667  0.25000000  0.21875000  1.0
  Zn  Zn151  1  0.91666667  0.58333333  0.21875000  1.0
  Zn  Zn152  1  0.91666667  0.91666667  0.21875000  1.0
  Zn  Zn153  1  0.25000000  0.08333333  0.17708333  1.0
  Zn  Zn154  1  0.25000000  0.41666667  0.17708333  1.0
  Zn  Zn155  1  0.25000000  0.75000000  0.17708333  1.0
  Zn  Zn156  1  0.58333333  0.08333333  0.17708333  1.0
  Zn  Zn157  1  0.58333333  0.41666667  0.17708333  1.0
  Zn  Zn158  1  0.58333333  0.75000000  0.17708333  1.0
  Zn  Zn159  1  0.91666667  0.08333333  0.17708333  1.0
  Zn  Zn160  1  0.91666667  0.41666667  0.17708333  1.0
  Zn  Zn161  1  0.91666667  0.75000000  0.17708333  1.0
  Zn  Zn162  1  0.08333333  0.25000000  0.21875000  1.0
  Zn  Zn163  1  0.08333333  0.58333333  0.21875000  1.0
  Zn  Zn164  1  0.08333333  0.91666667  0.21875000  1.0
  Zn  Zn165  1  0.41666667  0.25000000  0.21875000  1.0
  Zn  Zn166  1  0.41666667  0.58333333  0.21875000  1.0
  Zn  Zn167  1  0.41666667  0.91666667  0.21875000  1.0
  Zn  Zn168  1  0.75000000  0.25000000  0.21875000  1.0
  Zn  Zn169  1  0.75000000  0.58333333  0.21875000  1.0
  Zn  Zn170  1  0.75000000  0.91666667  0.21875000  1.0
  Zn  Zn171  1  0.08333333  0.08333333  0.17708333  1.0
  Zn  Zn172  1  0.08333333  0.41666667  0.17708333  1.0
  Zn  Zn173  1  0.08333333  0.75000000  0.17708333  1.0
  Zn  Zn174  1  0.41666667  0.08333333  0.17708333  1.0
  Zn  Zn175  1  0.41666667  0.41666667  0.17708333  1.0
  Zn  Zn176  1  0.41666667  0.75000000  0.17708333  1.0
  Zn  Zn177  1  0.75000000  0.08333333  0.17708333  1.0
  Zn  Zn178  1  0.75000000  0.41666667  0.17708333  1.0
  Zn  Zn179  1  0.75000000  0.75000000  0.17708333  1.0
  Zn  Zn180  1  0.16666667  0.16666667  0.19791667  1.0
  Zn  Zn181  1  0.16666667  0.50000000  0.19791667  1.0
  Zn  Zn182  1  0.16666667  0.83333333  0.19791667  1.0
  Zn  Zn183  1  0.50000000  0.16666667  0.19791667  1.0
  Zn  Zn184  1  0.50000000  0.50000000  0.19791667  1.0
  Zn  Zn185  1  0.50000000  0.83333333  0.19791667  1.0
  Zn  Zn186  1  0.83333333  0.16666667  0.19791667  1.0
  Zn  Zn187  1  0.83333333  0.50000000  0.19791667  1.0
  Zn  Zn188  1  0.83333333  0.83333333  0.19791667  1.0
  Zn  Zn189  1  0.16666667  0.00000000  0.23958333  1.0
  Zn  Zn190  1  0.16666667  0.33333333  0.23958333  1.0
  Zn  Zn191  1  0.16666667  0.66666667  0.23958333  1.0
  Zn  Zn192  1  0.50000000  0.00000000  0.23958333  1.0
  Zn  Zn193  1  0.50000000  0.33333333  0.23958333  1.0
  Zn  Zn194  1  0.50000000  0.66666667  0.23958333  1.0
  Zn  Zn195  1  0.83333333  0.00000000  0.23958333  1.0
  Zn  Zn196  1  0.83333333  0.33333333  0.23958333  1.0
  Zn  Zn197  1  0.83333333  0.66666667  0.23958333  1.0
  Ni  Ni198  1  0.00000000  0.16666667  0.19791667  1.0
  Ni  Ni199  1  0.00000000  0.50000000  0.19791667  1.0
  Ni  Ni200  1  0.00000000  0.83333333  0.19791667  1.0
  Ni  Ni201  1  0.33333333  0.16666667  0.19791667  1.0
  Ni  Ni202  1  0.33333333  0.50000000  0.19791667  1.0
  Ni  Ni203  1  0.33333333  0.83333333  0.19791667  1.0
  Ni  Ni204  1  0.66666667  0.16666667  0.19791667  1.0
  Ni  Ni205  1  0.66666667  0.50000000  0.19791667  1.0
  Ni  Ni206  1  0.66666667  0.83333333  0.19791667  1.0
  Ni  Ni207  1  0.00000000  0.00000000  0.23958333  1.0
  Ni  Ni208  1  0.00000000  0.33333333  0.23958333  1.0
  Ni  Ni209  1  0.00000000  0.66666667  0.23958333  1.0
  Ni  Ni210  1  0.33333333  0.00000000  0.23958333  1.0
  Ni  Ni211  1  0.33333333  0.33333333  0.23958333  1.0
  Ni  Ni212  1  0.33333333  0.66666667  0.23958333  1.0
  Ni  Ni213  1  0.66666667  0.00000000  0.23958333  1.0
  Ni  Ni214  1  0.66666667  0.33333333  0.23958333  1.0
  Ni  Ni215  1  0.66666667  0.66666667  0.23958333  1.0
  Zn  Zn216  1  0.25000000  0.25000000  0.30208333  1.0
  Zn  Zn217  1  0.25000000  0.58333333  0.30208333  1.0
  Zn  Zn218  1  0.25000000  0.91666667  0.30208333  1.0
  Zn  Zn219  1  0.58333333  0.25000000  0.30208333  1.0
  Zn  Zn220  1  0.58333333  0.58333333  0.30208333  1.0
  Zn  Zn221  1  0.58333333  0.91666667  0.30208333  1.0
  Zn  Zn222  1  0.91666667  0.25000000  0.30208333  1.0
  Zn  Zn223  1  0.91666667  0.58333333  0.30208333  1.0
  Zn  Zn224  1  0.91666667  0.91666667  0.30208333  1.0
  Zn  Zn225  1  0.25000000  0.08333333  0.26041667  1.0
  Zn  Zn226  1  0.25000000  0.41666667  0.26041667  1.0
  Zn  Zn227  1  0.25000000  0.75000000  0.26041667  1.0
  Zn  Zn228  1  0.58333333  0.08333333  0.26041667  1.0
  Zn  Zn229  1  0.58333333  0.41666667  0.26041667  1.0
  Zn  Zn230  1  0.58333333  0.75000000  0.26041667  1.0
  Zn  Zn231  1  0.91666667  0.08333333  0.26041667  1.0
  Zn  Zn232  1  0.91666667  0.41666667  0.26041667  1.0
  Zn  Zn233  1  0.91666667  0.75000000  0.26041667  1.0
  Zn  Zn234  1  0.08333333  0.25000000  0.30208333  1.0
  Zn  Zn235  1  0.08333333  0.58333333  0.30208333  1.0
  Zn  Zn236  1  0.08333333  0.91666667  0.30208333  1.0
  Zn  Zn237  1  0.41666667  0.25000000  0.30208333  1.0
  Zn  Zn238  1  0.41666667  0.58333333  0.30208333  1.0
  Zn  Zn239  1  0.41666667  0.91666667  0.30208333  1.0
  Zn  Zn240  1  0.75000000  0.25000000  0.30208333  1.0
  Zn  Zn241  1  0.75000000  0.58333333  0.30208333  1.0
  Zn  Zn242  1  0.75000000  0.91666667  0.30208333  1.0
  Zn  Zn243  1  0.08333333  0.08333333  0.26041667  1.0
  Zn  Zn244  1  0.08333333  0.41666667  0.26041667  1.0
  Zn  Zn245  1  0.08333333  0.75000000  0.26041667  1.0
  Zn  Zn246  1  0.41666667  0.08333333  0.26041667  1.0
  Zn  Zn247  1  0.41666667  0.41666667  0.26041667  1.0
  Zn  Zn248  1  0.41666667  0.75000000  0.26041667  1.0
  Zn  Zn249  1  0.75000000  0.08333333  0.26041667  1.0
  Zn  Zn250  1  0.75000000  0.41666667  0.26041667  1.0
  Zn  Zn251  1  0.75000000  0.75000000  0.26041667  1.0
  Zn  Zn252  1  0.16666667  0.16666667  0.28125000  1.0
  Zn  Zn253  1  0.16666667  0.50000000  0.28125000  1.0
  Zn  Zn254  1  0.16666667  0.83333333  0.28125000  1.0
  Zn  Zn255  1  0.50000000  0.16666667  0.28125000  1.0
  Zn  Zn256  1  0.50000000  0.50000000  0.28125000  1.0
  Zn  Zn257  1  0.50000000  0.83333333  0.28125000  1.0
  Zn  Zn258  1  0.83333333  0.16666667  0.28125000  1.0
  Zn  Zn259  1  0.83333333  0.50000000  0.28125000  1.0
  Zn  Zn260  1  0.83333333  0.83333333  0.28125000  1.0
  Zn  Zn261  1  0.16666667  0.00000000  0.32291667  1.0
  Zn  Zn262  1  0.16666667  0.33333333  0.32291667  1.0
  Zn  Zn263  1  0.16666667  0.66666667  0.32291667  1.0
  Zn  Zn264  1  0.50000000  0.00000000  0.32291667  1.0
  Zn  Zn265  1  0.50000000  0.33333333  0.32291667  1.0
  Zn  Zn266  1  0.50000000  0.66666667  0.32291667  1.0
  Zn  Zn267  1  0.83333333  0.00000000  0.32291667  1.0
  Zn  Zn268  1  0.83333333  0.33333333  0.32291667  1.0
  Zn  Zn269  1  0.83333333  0.66666667  0.32291667  1.0
  Ni  Ni270  1  0.00000000  0.16666667  0.28125000  1.0
  Ni  Ni271  1  0.00000000  0.50000000  0.28125000  1.0
  Ni  Ni272  1  0.00000000  0.83333333  0.28125000  1.0
  Ni  Ni273  1  0.33333333  0.16666667  0.28125000  1.0
  Ni  Ni274  1  0.33333333  0.50000000  0.28125000  1.0
  Ni  Ni275  1  0.33333333  0.83333333  0.28125000  1.0
  Ni  Ni276  1  0.66666667  0.16666667  0.28125000  1.0
  Ni  Ni277  1  0.66666667  0.50000000  0.28125000  1.0
  Ni  Ni278  1  0.66666667  0.83333333  0.28125000  1.0
  Ni  Ni279  1  0.00000000  0.00000000  0.32291667  1.0
  Ni  Ni280  1  0.00000000  0.33333333  0.32291667  1.0
  Ni  Ni281  1  0.00000000  0.66666667  0.32291667  1.0
  Ni  Ni282  1  0.33333333  0.00000000  0.32291667  1.0
  Ni  Ni283  1  0.33333333  0.33333333  0.32291667  1.0
  Ni  Ni284  1  0.33333333  0.66666667  0.32291667  1.0
  Ni  Ni285  1  0.66666667  0.00000000  0.32291667  1.0
  Ni  Ni286  1  0.66666667  0.33333333  0.32291667  1.0
  Ni  Ni287  1  0.66666667  0.66666667  0.32291667  1.0
  Zn  Zn288  1  0.25000000  0.25000000  0.38541667  1.0
  Zn  Zn289  1  0.25000000  0.58333333  0.38541667  1.0
  Zn  Zn290  1  0.25000000  0.91666667  0.38541667  1.0
  Zn  Zn291  1  0.58333333  0.25000000  0.38541667  1.0
  Zn  Zn292  1  0.58333333  0.58333333  0.38541667  1.0
  Zn  Zn293  1  0.58333333  0.91666667  0.38541667  1.0
  Zn  Zn294  1  0.91666667  0.25000000  0.38541667  1.0
  Zn  Zn295  1  0.91666667  0.58333333  0.38541667  1.0
  Zn  Zn296  1  0.91666667  0.91666667  0.38541667  1.0
  Zn  Zn297  1  0.25000000  0.08333333  0.34375000  1.0
  Zn  Zn298  1  0.25000000  0.41666667  0.34375000  1.0
  Zn  Zn299  1  0.25000000  0.75000000  0.34375000  1.0
  Zn  Zn300  1  0.58333333  0.08333333  0.34375000  1.0
  Zn  Zn301  1  0.58333333  0.41666667  0.34375000  1.0
  Zn  Zn302  1  0.58333333  0.75000000  0.34375000  1.0
  Zn  Zn303  1  0.91666667  0.08333333  0.34375000  1.0
  Zn  Zn304  1  0.91666667  0.41666667  0.34375000  1.0
  Zn  Zn305  1  0.91666667  0.75000000  0.34375000  1.0
  Zn  Zn306  1  0.08333333  0.25000000  0.38541667  1.0
  Zn  Zn307  1  0.08333333  0.58333333  0.38541667  1.0
  Zn  Zn308  1  0.08333333  0.91666667  0.38541667  1.0
  Zn  Zn309  1  0.41666667  0.25000000  0.38541667  1.0
  Zn  Zn310  1  0.41666667  0.58333333  0.38541667  1.0
  Zn  Zn311  1  0.41666667  0.91666667  0.38541667  1.0
  Zn  Zn312  1  0.75000000  0.25000000  0.38541667  1.0
  Zn  Zn313  1  0.75000000  0.58333333  0.38541667  1.0
  Zn  Zn314  1  0.75000000  0.91666667  0.38541667  1.0
  Zn  Zn315  1  0.08333333  0.08333333  0.34375000  1.0
  Zn  Zn316  1  0.08333333  0.41666667  0.34375000  1.0
  Zn  Zn317  1  0.08333333  0.75000000  0.34375000  1.0
  Zn  Zn318  1  0.41666667  0.08333333  0.34375000  1.0
  Zn  Zn319  1  0.41666667  0.41666667  0.34375000  1.0
  Zn  Zn320  1  0.41666667  0.75000000  0.34375000  1.0
  Zn  Zn321  1  0.75000000  0.08333333  0.34375000  1.0
  Zn  Zn322  1  0.75000000  0.41666667  0.34375000  1.0
  Zn  Zn323  1  0.75000000  0.75000000  0.34375000  1.0
  Zn  Zn324  1  0.16666667  0.16666667  0.36458333  1.0
  Zn  Zn325  1  0.16666667  0.50000000  0.36458333  1.0
  Zn  Zn326  1  0.16666667  0.83333333  0.36458333  1.0
  Zn  Zn327  1  0.50000000  0.16666667  0.36458333  1.0
  Zn  Zn328  1  0.50000000  0.50000000  0.36458333  1.0
  Zn  Zn329  1  0.50000000  0.83333333  0.36458333  1.0
  Zn  Zn330  1  0.83333333  0.16666667  0.36458333  1.0
  Zn  Zn331  1  0.83333333  0.50000000  0.36458333  1.0
  Zn  Zn332  1  0.83333333  0.83333333  0.36458333  1.0
  Zn  Zn333  1  0.16666667  0.00000000  0.40625000  1.0
  Zn  Zn334  1  0.16666667  0.33333333  0.40625000  1.0
  Zn  Zn335  1  0.16666667  0.66666667  0.40625000  1.0
  Zn  Zn336  1  0.50000000  0.00000000  0.40625000  1.0
  Zn  Zn337  1  0.50000000  0.33333333  0.40625000  1.0
  Zn  Zn338  1  0.50000000  0.66666667  0.40625000  1.0
  Zn  Zn339  1  0.83333333  0.00000000  0.40625000  1.0
  Zn  Zn340  1  0.83333333  0.33333333  0.40625000  1.0
  Zn  Zn341  1  0.83333333  0.66666667  0.40625000  1.0
  Ni  Ni342  1  0.00000000  0.16666667  0.36458333  1.0
  Ni  Ni343  1  0.00000000  0.50000000  0.36458333  1.0
  Ni  Ni344  1  0.00000000  0.83333333  0.36458333  1.0
  Ni  Ni345  1  0.33333333  0.16666667  0.36458333  1.0
  Ni  Ni346  1  0.33333333  0.50000000  0.36458333  1.0
  Ni  Ni347  1  0.33333333  0.83333333  0.36458333  1.0
  Ni  Ni348  1  0.66666667  0.16666667  0.36458333  1.0
  Ni  Ni349  1  0.66666667  0.50000000  0.36458333  1.0
  Ni  Ni350  1  0.66666667  0.83333333  0.36458333  1.0
  Ni  Ni351  1  0.00000000  0.00000000  0.40625000  1.0
  Ni  Ni352  1  0.00000000  0.33333333  0.40625000  1.0
  Ni  Ni353  1  0.00000000  0.66666667  0.40625000  1.0
  Ni  Ni354  1  0.33333333  0.00000000  0.40625000  1.0
  Ni  Ni355  1  0.33333333  0.33333333  0.40625000  1.0
  Ni  Ni356  1  0.33333333  0.66666667  0.40625000  1.0
  Ni  Ni357  1  0.66666667  0.00000000  0.40625000  1.0
  Ni  Ni358  1  0.66666667  0.33333333  0.40625000  1.0
  Ni  Ni359  1  0.66666667  0.66666667  0.40625000  1.0
