# generated using pymatgen
data_Zn3Ni
_symmetry_space_group_name_H-M   'P 1'
_cell_length_a   10.97010599
_cell_length_b   36.35906501
_cell_length_c   29.25361598
_cell_angle_alpha   98.67664765
_cell_angle_beta   90.00000001
_cell_angle_gamma   98.67664766
_symmetry_Int_Tables_number   1
_chemical_formula_structural   Zn3Ni
_chemical_formula_sum   'Zn270 Ni90'
_cell_volume   11399.54090697
_cell_formula_units_Z   90
loop_
 _symmetry_equiv_pos_site_id
 _symmetry_equiv_pos_as_xyz
  1  'x, y, z'
loop_
 _atom_site_type_symbol
 _atom_site_label
 _atom_site_symmetry_multiplicity
 _atom_site_fract_x
 _atom_site_fract_y
 _atom_site_fract_z
 _atom_site_occupancy
  Ni  Ni0  1  0.23611111  0.11805556  0.96354167  1.0
  Ni  Ni1  1  0.23611111  0.45138889  0.96354167  1.0
  Ni  Ni2  1  0.23611111  0.78472222  0.96354167  1.0
  Ni  Ni3  1  0.56944444  0.11805556  0.96354167  1.0
  Ni  Ni4  1  0.56944444  0.45138889  0.96354167  1.0
  Ni  Ni5  1  0.56944444  0.78472222  0.96354167  1.0
  Ni  Ni6  1  0.90277778  0.11805556  0.96354167  1.0
  Ni  Ni7  1  0.90277778  0.45138889  0.96354167  1.0
  Ni  Ni8  1  0.90277778  0.78472222  0.96354167  1.0
  Ni  Ni9  1  0.12500000  0.22916667  0.92187500  1.0
  Ni  Ni10  1  0.12500000  0.56250000  0.92187500  1.0
  Ni  Ni11  1  0.12500000  0.89583333  0.92187500  1.0
  Ni  Ni12  1  0.45833333  0.22916667  0.92187500  1.0
  Ni  Ni13  1  0.45833333  0.56250000  0.92187500  1.0
  Ni  Ni14  1  0.45833333  0.89583333  0.92187500  1.0
  Ni  Ni15  1  0.79166667  0.22916667  0.92187500  1.0
  Ni  Ni16  1  0.79166667  0.56250000  0.92187500  1.0
  Ni  Ni17  1  0.79166667  0.89583333  0.92187500  1.0
  Ni  Ni18  1  0.01388889  0.00694444  0.88020833  1.0
  Ni  Ni19  1  0.01388889  0.34027778  0.88020833  1.0
  Ni  Ni20  1  0.01388889  0.67361111  0.88020833  1.0
  Ni  Ni21  1  0.34722222  0.00694444  0.88020833  1.0
  Ni  Ni22  1  0.34722222  0.34027778  0.88020833  1.0
  Ni  Ni23  1  0.34722222  0.67361111  0.88020833  1.0
  Ni  Ni24  1  0.68055556  0.00694444  0.88020833  1.0
  Ni  Ni25  1  0.68055556  0.34027778  0.88020833  1.0
  Ni  Ni26  1  0.68055556  0.67361111  0.88020833  1.0
  Ni  Ni27  1  0.23611111  0.11805556  0.83854167  1.0
  Ni  Ni28  1  0.23611111  0.45138889  0.83854167  1.0
  Ni  Ni29  1  0.23611111  0.78472222  0.83854167  1.0
  Ni  Ni30  1  0.56944444  0.11805556  0.83854167  1.0
  Ni  Ni31  1  0.56944444  0.45138889  0.83854167  1.0
  Ni  Ni32  1  0.56944444  0.78472222  0.83854167  1.0
  Ni  Ni33  1  0.90277778  0.11805556  0.83854167  1.0
  Ni  Ni34  1  0.90277778  0.45138889  0.83854167  1.0
  Ni  Ni35  1  0.90277778  0.78472222  0.83854167  1.0
  Ni  Ni36  1  0.12500000  0.22916667  0.79687500  1.0
  Ni  Ni37  1  0.12500000  0.56250000  0.79687500  1.0
  Ni  Ni38  1  0.12500000  0.89583333  0.79687500  1.0
  Ni  Ni39  1  0.45833333  0.22916667  0.79687500  1.0
  Ni  Ni40  1  0.45833333  0.56250000  0.79687500  1.0
  Ni  Ni41  1  0.45833333  0.89583333  0.79687500  1.0
  Ni  Ni42  1  0.79166667  0.22916667  0.79687500  1.0
  Ni  Ni43  1  0.79166667  0.56250000  0.79687500  1.0
  Ni  Ni44  1  0.79166667  0.89583333  0.79687500  1.0
  Ni  Ni45  1  0.01388889  0.00694444  0.75520833  1.0
  Ni  Ni46  1  0.01388889  0.34027778  0.75520833  1.0
  Ni  Ni47  1  0.01388889  0.67361111  0.75520833  1.0
  Ni  Ni48  1  0.34722222  0.00694444  0.75520833  1.0
  Ni  Ni49  1  0.34722222  0.34027778  0.75520833  1.0
  Ni  Ni50  1  0.34722222  0.67361111  0.75520833  1.0
  Ni  Ni51  1  0.68055556  0.00694444  0.75520833  1.0
  Ni  Ni52  1  0.68055556  0.34027778  0.75520833  1.0
  Ni  Ni53  1  0.68055556  0.67361111  0.75520833  1.0
  Ni  Ni54  1  0.23611111  0.11805556  0.71354167  1.0
  Ni  Ni55  1  0.23611111  0.45138889  0.71354167  1.0
  Ni  Ni56  1  0.23611111  0.78472222  0.71354167  1.0
  Ni  Ni57  1  0.56944444  0.11805556  0.71354167  1.0
  Ni  Ni58  1  0.56944444  0.45138889  0.71354167  1.0
  Ni  Ni59  1  0.56944444  0.78472222  0.71354167  1.0
  Ni  Ni60  1  0.90277778  0.11805556  0.71354167  1.0
  Ni  Ni61  1  0.90277778  0.45138889  0.71354167  1.0
  Ni  Ni62  1  0.90277778  0.78472222  0.71354167  1.0
  Ni  Ni63  1  0.12500000  0.22916667  0.67187500  1.0
  Ni  Ni64  1  0.12500000  0.56250000  0.67187500  1.0
  Ni  Ni65  1  0.12500000  0.89583333  0.67187500  1.0
  Ni  Ni66  1  0.45833333  0.22916667  0.67187500  1.0
  Ni  Ni67  1  0.45833333  0.56250000  0.67187500  1.0
  Ni  Ni68  1  0.45833333  0.89583333  0.67187500  1.0
  Ni  Ni69  1  0.79166667  0.22916667  0.67187500  1.0
  Ni  Ni70  1  0.79166667  0.56250000  0.67187500  1.0
  Ni  Ni71  1  0.79166667  0.89583333  0.67187500  1.0
  Ni  Ni72  1  0.01388889  0.00694444  0.63020833  1.0
  Ni  Ni73  1  0.01388889  0.34027778  0.63020833  1.0
  Ni  Ni74  1  0.01388889  0.67361111  0.63020833  1.0
  Ni  Ni75  1  0.34722222  0.00694444  0.63020833  1.0
  Ni  Ni76  1  0.34722222  0.34027778  0.63020833  1.0
  Ni  Ni77  1  0.34722222  0.67361111  0.63020833  1.0
  Ni  Ni78  1  0.68055556  0.00694444  0.63020833  1.0
  Ni  Ni79  1  0.68055556  0.34027778  0.63020833  1.0
  Ni  Ni80  1  0.68055556  0.67361111  0.63020833  1.0
  Ni  Ni81  1  0.23611111  0.11805556  0.58854167  1.0
  Ni  Ni82  1  0.23611111  0.45138889  0.58854167  1.0
  Ni  Ni83  1  0.23611111  0.78472222  0.58854167  1.0
  Ni  Ni84  1  0.56944444  0.11805556  0.58854167  1.0
  Ni  Ni85  1  0.56944444  0.45138889  0.58854167  1.0
  Ni  Ni86  1  0.56944444  0.78472222  0.58854167  1.0
  Ni  Ni87  1  0.90277778  0.11805556  0.58854167  1.0
  Ni  Ni88  1  0.90277778  0.45138889  0.58854167  1.0
  Ni  Ni89  1  0.90277778  0.78472222  0.58854167  1.0
  Zn  Zn90  1  0.04166667  0.06250000  0.95312500  1.0
  Zn  Zn91  1  0.04166667  0.39583333  0.95312500  1.0
  Zn  Zn92  1  0.04166667  0.72916667  0.95312500  1.0
  Zn  Zn93  1  0.37500000  0.06250000  0.95312500  1.0
  Zn  Zn94  1  0.37500000  0.39583333  0.95312500  1.0
  Zn  Zn95  1  0.37500000  0.72916667  0.95312500  1.0
  Zn  Zn96  1  0.70833333  0.06250000  0.95312500  1.0
  Zn  Zn97  1  0.70833333  0.39583333  0.95312500  1.0
  Zn  Zn98  1  0.70833333  0.72916667  0.95312500  1.0
  Zn  Zn99  1  0.15277778  0.28472222  0.99479167  1.0
  Zn  Zn100  1  0.15277778  0.61805556  0.99479167  1.0
  Zn  Zn101  1  0.15277778  0.95138889  0.99479167  1.0
  Zn  Zn102  1  0.48611111  0.28472222  0.99479167  1.0
  Zn  Zn103  1  0.48611111  0.61805556  0.99479167  1.0
  Zn  Zn104  1  0.48611111  0.95138889  0.99479167  1.0
  Zn  Zn105  1  0.81944444  0.28472222  0.99479167  1.0
  Zn  Zn106  1  0.81944444  0.61805556  0.99479167  1.0
  Zn  Zn107  1  0.81944444  0.95138889  0.99479167  1.0
  Zn  Zn108  1  0.09722222  0.17361111  0.97395833  1.0
  Zn  Zn109  1  0.09722222  0.50694444  0.97395833  1.0
  Zn  Zn110  1  0.09722222  0.84027778  0.97395833  1.0
  Zn  Zn111  1  0.43055556  0.17361111  0.97395833  1.0
  Zn  Zn112  1  0.43055556  0.50694444  0.97395833  1.0
  Zn  Zn113  1  0.43055556  0.84027778  0.97395833  1.0
  Zn  Zn114  1  0.76388889  0.17361111  0.97395833  1.0
  Zn  Zn115  1  0.76388889  0.50694444  0.97395833  1.0
  Zn  Zn116  1  0.76388889  0.84027778  0.97395833  1.0
  Zn  Zn117  1  0.31944444  0.28472222  0.93229167  1.0
  Zn  Zn118  1  0.31944444  0.61805556  0.93229167  1.0
  Zn  Zn119  1  0.31944444  0.95138889  0.93229167  1.0
  Zn  Zn120  1  0.65277778  0.28472222  0.93229167  1.0
  Zn  Zn121  1  0.65277778  0.61805556  0.93229167  1.0
  Zn  Zn122  1  0.65277778  0.95138889  0.93229167  1.0
  Zn  Zn123  1  0.98611111  0.28472222  0.93229167  1.0
  Zn  Zn124  1  0.98611111  0.61805556  0.93229167  1.0
  Zn  Zn125  1  0.98611111  0.95138889  0.93229167  1.0
  Zn  Zn126  1  0.29166667  0.22916667  0.98437500  1.0
  Zn  Zn127  1  0.29166667  0.56250000  0.98437500  1.0
  Zn  Zn128  1  0.29166667  0.89583333  0.98437500  1.0
  Zn  Zn129  1  0.62500000  0.22916667  0.98437500  1.0
  Zn  Zn130  1  0.62500000  0.56250000  0.98437500  1.0
  Zn  Zn131  1  0.62500000  0.89583333  0.98437500  1.0
  Zn  Zn132  1  0.95833333  0.22916667  0.98437500  1.0
  Zn  Zn133  1  0.95833333  0.56250000  0.98437500  1.0
  Zn  Zn134  1  0.95833333  0.89583333  0.98437500  1.0
  Zn  Zn135  1  0.18055556  0.00694444  0.94270833  1.0
  Zn  Zn136  1  0.18055556  0.34027778  0.94270833  1.0
  Zn  Zn137  1  0.18055556  0.67361111  0.94270833  1.0
  Zn  Zn138  1  0.51388889  0.00694444  0.94270833  1.0
  Zn  Zn139  1  0.51388889  0.34027778  0.94270833  1.0
  Zn  Zn140  1  0.51388889  0.67361111  0.94270833  1.0
  Zn  Zn141  1  0.84722222  0.00694444  0.94270833  1.0
  Zn  Zn142  1  0.84722222  0.34027778  0.94270833  1.0
  Zn  Zn143  1  0.84722222  0.67361111  0.94270833  1.0
  Zn  Zn144  1  0.15277778  0.28472222  0.86979167  1.0
  Zn  Zn145  1  0.15277778  0.61805556  0.86979167  1.0
  Zn  Zn146  1  0.15277778  0.95138889  0.86979167  1.0
  Zn  Zn147  1  0.48611111  0.28472222  0.86979167  1.0
  Zn  Zn148  1  0.48611111  0.61805556  0.86979167  1.0
  Zn  Zn149  1  0.48611111  0.95138889  0.86979167  1.0
  Zn  Zn150  1  0.81944444  0.28472222  0.86979167  1.0
  Zn  Zn151  1  0.81944444  0.61805556  0.86979167  1.0
  Zn  Zn152  1  0.81944444  0.95138889  0.86979167  1.0
  Zn  Zn153  1  0.26388889  0.17361111  0.91145833  1.0
  Zn  Zn154  1  0.26388889  0.50694444  0.91145833  1.0
  Zn  Zn155  1  0.26388889  0.84027778  0.91145833  1.0
  Zn  Zn156  1  0.59722222  0.17361111  0.91145833  1.0
  Zn  Zn157  1  0.59722222  0.50694444  0.91145833  1.0
  Zn  Zn158  1  0.59722222  0.84027778  0.91145833  1.0
  Zn  Zn159  1  0.93055556  0.17361111  0.91145833  1.0
  Zn  Zn160  1  0.93055556  0.50694444  0.91145833  1.0
  Zn  Zn161  1  0.93055556  0.84027778  0.91145833  1.0
  Zn  Zn162  1  0.20833333  0.06250000  0.89062500  1.0
  Zn  Zn163  1  0.20833333  0.39583333  0.89062500  1.0
  Zn  Zn164  1  0.20833333  0.72916667  0.89062500  1.0
  Zn  Zn165  1  0.54166667  0.06250000  0.89062500  1.0
  Zn  Zn166  1  0.54166667  0.39583333  0.89062500  1.0
  Zn  Zn167  1  0.54166667  0.72916667  0.89062500  1.0
  Zn  Zn168  1  0.87500000  0.06250000  0.89062500  1.0
  Zn  Zn169  1  0.87500000  0.39583333  0.89062500  1.0
  Zn  Zn170  1  0.87500000  0.72916667  0.89062500  1.0
  Zn  Zn171  1  0.09722222  0.17361111  0.84895833  1.0
  Zn  Zn172  1  0.09722222  0.50694444  0.84895833  1.0
  Zn  Zn173  1  0.09722222  0.84027778  0.84895833  1.0
  Zn  Zn174  1  0.43055556  0.17361111  0.84895833  1.0
  Zn  Zn175  1  0.43055556  0.50694444  0.84895833  1.0
  Zn  Zn176  1  0.43055556  0.84027778  0.84895833  1.0
  Zn  Zn177  1  0.76388889  0.17361111  0.84895833  1.0
  Zn  Zn178  1  0.76388889  0.50694444  0.84895833  1.0
  Zn  Zn179  1  0.76388889  0.84027778  0.84895833  1.0
  Zn  Zn180  1  0.06944444  0.11805556  0.90104167  1.0
  Zn  Zn181  1  0.06944444  0.45138889  0.90104167  1.0
  Zn  Zn182  1  0.06944444  0.78472222  0.90104167  1.0
  Zn  Zn183  1  0.40277778  0.11805556  0.90104167  1.0
  Zn  Zn184  1  0.40277778  0.45138889  0.90104167  1.0
  Zn  Zn185  1  0.40277778  0.78472222  0.90104167  1.0
  Zn  Zn186  1  0.73611111  0.11805556  0.90104167  1.0
  Zn  Zn187  1  0.73611111  0.45138889  0.90104167  1.0
  Zn  Zn188  1  0.73611111  0.78472222  0.90104167  1.0
  Zn  Zn189  1  0.29166667  0.22916667  0.85937500  1.0
  Zn  Zn190  1  0.29166667  0.56250000  0.85937500  1.0
  Zn  Zn191  1  0.29166667  0.89583333  0.85937500  1.0
  Zn  Zn192  1  0.62500000  0.22916667  0.85937500  1.0
  Zn  Zn193  1  0.62500000  0.56250000  0.85937500  1.0
  Zn  Zn194  1  0.62500000  0.89583333  0.85937500  1.0
  Zn  Zn195  1  0.95833333  0.22916667  0.85937500  1.0
  Zn  Zn196  1  0.95833333  0.56250000  0.85937500  1.0
  Zn  Zn197  1  0.95833333  0.89583333  0.85937500  1.0
  Zn  Zn198  1  0.26388889  0.17361111  0.78645833  1.0
  Zn  Zn199  1  0.26388889  0.50694444  0.78645833  1.0
  Zn  Zn200  1  0.26388889  0.84027778  0.78645833  1.0
  Zn  Zn201  1  0.59722222  0.17361111  0.78645833  1.0
  Zn  Zn202  1  0.59722222  0.50694444  0.78645833  1.0
  Zn  Zn203  1  0.59722222  0.84027778  0.78645833  1.0
  Zn  Zn204  1  0.93055556  0.17361111  0.78645833  1.0
  Zn  Zn205  1  0.93055556  0.50694444  0.78645833  1.0
  Zn  Zn206  1  0.93055556  0.84027778  0.78645833  1.0
  Zn  Zn207  1  0.04166667  0.06250000  0.82812500  1.0
  Zn  Zn208  1  0.04166667  0.39583333  0.82812500  1.0
  Zn  Zn209  1  0.04166667  0.72916667  0.82812500  1.0
  Zn  Zn210  1  0.37500000  0.06250000  0.82812500  1.0
  Zn  Zn211  1  0.37500000  0.39583333  0.82812500  1.0
  Zn  Zn212  1  0.37500000  0.72916667  0.82812500  1.0
  Zn  Zn213  1  0.70833333  0.06250000  0.82812500  1.0
  Zn  Zn214  1  0.70833333  0.39583333  0.82812500  1.0
  Zn  Zn215  1  0.70833333  0.72916667  0.82812500  1.0
  Zn  Zn216  1  0.31944444  0.28472222  0.80729167  1.0
  Zn  Zn217  1  0.31944444  0.61805556  0.80729167  1.0
  Zn  Zn218  1  0.31944444  0.95138889  0.80729167  1.0
  Zn  Zn219  1  0.65277778  0.28472222  0.80729167  1.0
  Zn  Zn220  1  0.65277778  0.61805556  0.80729167  1.0
  Zn  Zn221  1  0.65277778  0.95138889  0.80729167  1.0
  Zn  Zn222  1  0.98611111  0.28472222  0.80729167  1.0
  Zn  Zn223  1  0.98611111  0.61805556  0.80729167  1.0
  Zn  Zn224  1  0.98611111  0.95138889  0.80729167  1.0
  Zn  Zn225  1  0.20833333  0.06250000  0.76562500  1.0
  Zn  Zn226  1  0.20833333  0.39583333  0.76562500  1.0
  Zn  Zn227  1  0.20833333  0.72916667  0.76562500  1.0
  Zn  Zn228  1  0.54166667  0.06250000  0.76562500  1.0
  Zn  Zn229  1  0.54166667  0.39583333  0.76562500  1.0
  Zn  Zn230  1  0.54166667  0.72916667  0.76562500  1.0
  Zn  Zn231  1  0.87500000  0.06250000  0.76562500  1.0
  Zn  Zn232  1  0.87500000  0.39583333  0.76562500  1.0
  Zn  Zn233  1  0.87500000  0.72916667  0.76562500  1.0
  Zn  Zn234  1  0.18055556  0.00694444  0.81770833  1.0
  Zn  Zn235  1  0.18055556  0.34027778  0.81770833  1.0
  Zn  Zn236  1  0.18055556  0.67361111  0.81770833  1.0
  Zn  Zn237  1  0.51388889  0.00694444  0.81770833  1.0
  Zn  Zn238  1  0.51388889  0.34027778  0.81770833  1.0
  Zn  Zn239  1  0.51388889  0.67361111  0.81770833  1.0
  Zn  Zn240  1  0.84722222  0.00694444  0.81770833  1.0
  Zn  Zn241  1  0.84722222  0.34027778  0.81770833  1.0
  Zn  Zn242  1  0.84722222  0.67361111  0.81770833  1.0
  Zn  Zn243  1  0.06944444  0.11805556  0.77604167  1.0
  Zn  Zn244  1  0.06944444  0.45138889  0.77604167  1.0
  Zn  Zn245  1  0.06944444  0.78472222  0.77604167  1.0
  Zn  Zn246  1  0.40277778  0.11805556  0.77604167  1.0
  Zn  Zn247  1  0.40277778  0.45138889  0.77604167  1.0
  Zn  Zn248  1  0.40277778  0.78472222  0.77604167  1.0
  Zn  Zn249  1  0.73611111  0.11805556  0.77604167  1.0
  Zn  Zn250  1  0.73611111  0.45138889  0.77604167  1.0
  Zn  Zn251  1  0.73611111  0.78472222  0.77604167  1.0
  Zn  Zn252  1  0.04166667  0.06250000  0.70312500  1.0
  Zn  Zn253  1  0.04166667  0.39583333  0.70312500  1.0
  Zn  Zn254  1  0.04166667  0.72916667  0.70312500  1.0
  Zn  Zn255  1  0.37500000  0.06250000  0.70312500  1.0
  Zn  Zn256  1  0.37500000  0.39583333  0.70312500  1.0
  Zn  Zn257  1  0.37500000  0.72916667  0.70312500  1.0
  Zn  Zn258  1  0.70833333  0.06250000  0.70312500  1.0
  Zn  Zn259  1  0.70833333  0.39583333  0.70312500  1.0
  Zn  Zn260  1  0.70833333  0.72916667  0.70312500  1.0
  Zn  Zn261  1  0.15277778  0.28472222  0.74479167  1.0
  Zn  Zn262  1  0.15277778  0.61805556  0.74479167  1.0
  Zn  Zn263  1  0.15277778  0.95138889  0.74479167  1.0
  Zn  Zn264  1  0.48611111  0.28472222  0.74479167  1.0
  Zn  Zn265  1  0.48611111  0.61805556  0.74479167  1.0
  Zn  Zn266  1  0.48611111  0.95138889  0.74479167  1.0
  Zn  Zn267  1  0.81944444  0.28472222  0.74479167  1.0
  Zn  Zn268  1  0.81944444  0.61805556  0.74479167  1.0
  Zn  Zn269  1  0.81944444  0.95138889  0.74479167  1.0
  Zn  Zn270  1  0.09722222  0.17361111  0.72395833  1.0
  Zn  Zn271  1  0.09722222  0.50694444  0.72395833  1.0
  Zn  Zn272  1  0.09722222  0.84027778  0.72395833  1.0
  Zn  Zn273  1  0.43055556  0.17361111  0.72395833  1.0
  Zn  Zn274  1  0.43055556  0.50694444  0.72395833  1.0
  Zn  Zn275  1  0.43055556  0.84027778  0.72395833  1.0
  Zn  Zn276  1  0.76388889  0.17361111  0.72395833  1.0
  Zn  Zn277  1  0.76388889  0.50694444  0.72395833  1.0
  Zn  Zn278  1  0.76388889  0.84027778  0.72395833  1.0
  Zn  Zn279  1  0.31944444  0.28472222  0.68229167  1.0
  Zn  Zn280  1  0.31944444  0.61805556  0.68229167  1.0
  Zn  Zn281  1  0.31944444  0.95138889  0.68229167  1.0
  Zn  Zn282  1  0.65277778  0.28472222  0.68229167  1.0
  Zn  Zn283  1  0.65277778  0.61805556  0.68229167  1.0
  Zn  Zn284  1  0.65277778  0.95138889  0.68229167  1.0
  Zn  Zn285  1  0.98611111  0.28472222  0.68229167  1.0
  Zn  Zn286  1  0.98611111  0.61805556  0.68229167  1.0
  Zn  Zn287  1  0.98611111  0.95138889  0.68229167  1.0
  Zn  Zn288  1  0.29166667  0.22916667  0.73437500  1.0
  Zn  Zn289  1  0.29166667  0.56250000  0.73437500  1.0
  Zn  Zn290  1  0.29166667  0.89583333  0.73437500  1.0
  Zn  Zn291  1  0.62500000  0.22916667  0.73437500  1.0
  Zn  Zn292  1  0.62500000  0.56250000  0.73437500  1.0
  Zn  Zn293  1  0.62500000  0.89583333  0.73437500  1.0
  Zn  Zn294  1  0.95833333  0.22916667  0.73437500  1.0
  Zn  Zn295  1  0.95833333  0.56250000  0.73437500  1.0
  Zn  Zn296  1  0.95833333  0.89583333  0.73437500  1.0
  Zn  Zn297  1  0.18055556  0.00694444  0.69270833  1.0
  Zn  Zn298  1  0.18055556  0.34027778  0.69270833  1.0
  Zn  Zn299  1  0.18055556  0.67361111  0.69270833  1.0
  Zn  Zn300  1  0.51388889  0.00694444  0.69270833  1.0
  Zn  Zn301  1  0.51388889  0.34027778  0.69270833  1.0
  Zn  Zn302  1  0.51388889  0.67361111  0.69270833  1.0
  Zn  Zn303  1  0.84722222  0.00694444  0.69270833  1.0
  Zn  Zn304  1  0.84722222  0.34027778  0.69270833  1.0
  Zn  Zn305  1  0.84722222  0.67361111  0.69270833  1.0
  Zn  Zn306  1  0.15277778  0.28472222  0.61979167  1.0
  Zn  Zn307  1  0.15277778  0.61805556  0.61979167  1.0
  Zn  Zn308  1  0.15277778  0.95138889  0.61979167  1.0
  Zn  Zn309  1  0.48611111  0.28472222  0.61979167  1.0
  Zn  Zn310  1  0.48611111  0.61805556  0.61979167  1.0
  Zn  Zn311  1  0.48611111  0.95138889  0.61979167  1.0
  Zn  Zn312  1  0.81944444  0.28472222  0.61979167  1.0
  Zn  Zn313  1  0.81944444  0.61805556  0.61979167  1.0
  Zn  Zn314  1  0.81944444  0.95138889  0.61979167  1.0
  Zn  Zn315  1  0.26388889  0.17361111  0.66145833  1.0
  Zn  Zn316  1  0.26388889  0.50694444  0.66145833  1.0
  Zn  Zn317  1  0.26388889  0.84027778  0.66145833  1.0
  Zn  Zn318  1  0.59722222  0.17361111  0.66145833  1.0
  Zn  Zn319  1  0.59722222  0.50694444  0.66145833  1.0
  Zn  Zn320  1  0.59722222  0.84027778  0.66145833  1.0
  Zn  Zn321  1  0.93055556  0.17361111  0.66145833  1.0
  Zn  Zn322  1  0.93055556  0.50694444  0.66145833  1.0
  Zn  Zn323  1  0.93055556  0.84027778  0.66145833  1.0
  Zn  Zn324  1  0.20833333  0.06250000  0.64062500  1.0
  Zn  Zn325  1  0.20833333  0.39583333  0.64062500  1.0
  Zn  Zn326  1  0.20833333  0.72916667  0.64062500  1.0
  Zn  Zn327  1  0.54166667  0.06250000  0.64062500  1.0
  Zn  Zn328  1  0.54166667  0.39583333  0.64062500  1.0
  Zn  Zn329  1  0.54166667  0.72916667  0.64062500  1.0
  Zn  Zn330  1  0.87500000  0.06250000  0.64062500  1.0
  Zn  Zn331  1  0.87500000  0.39583333  0.64062500  1.0
  Zn  Zn332  1  0.87500000  0.72916667  0.64062500  1.0
  Zn  Zn333  1  0.09722222  0.17361111  0.59895833  1.0
  Zn  Zn334  1  0.09722222  0.50694444  0.59895833  1.0
  Zn  Zn335  1  0.09722222  0.84027778  0.59895833  1.0
  Zn  Zn336  1  0.43055556  0.17361111  0.59895833  1.0
  Zn  Zn337  1  0.43055556  0.50694444  0.59895833  1.0
  Zn  Zn338  1  0.43055556  0.84027778  0.59895833  1.0
  Zn  Zn339  1  0.76388889  0.17361111  0.59895833  1.0
  Zn  Zn340  1  0.76388889  0.50694444  0.59895833  1.0
  Zn  Zn341  1  0.76388889  0.84027778  0.59895833  1.0
  Zn  Zn342  1  0.06944444  0.11805556  0.65104167  1.0
  Zn  Zn343  1  0.06944444  0.45138889  0.65104167  1.0
  Zn  Zn344  1  0.06944444  0.78472222  0.65104167  1.0
  Zn  Zn345  1  0.40277778  0.11805556  0.65104167  1.0
  Zn  Zn346  1  0.40277778  0.45138889  0.65104167  1.0
  Zn  Zn347  1  0.40277778  0.78472222  0.65104167  1.0
  Zn  Zn348  1  0.73611111  0.11805556  0.65104167  1.0
  Zn  Zn349  1  0.73611111  0.45138889  0.65104167  1.0
  Zn  Zn350  1  0.73611111  0.78472222  0.65104167  1.0
  Zn  Zn351  1  0.29166667  0.22916667  0.60937500  1.0
  Zn  Zn352  1  0.29166667  0.56250000  0.60937500  1.0
  Zn  Zn353  1  0.29166667  0.89583333  0.60937500  1.0
  Zn  Zn354  1  0.62500000  0.22916667  0.60937500  1.0
  Zn  Zn355  1  0.62500000  0.56250000  0.60937500  1.0
  Zn  Zn356  1  0.62500000  0.89583333  0.60937500  1.0
  Zn  Zn357  1  0.95833333  0.22916667  0.60937500  1.0
  Zn  Zn358  1  0.95833333  0.56250000  0.60937500  1.0
  Zn  Zn359  1  0.95833333  0.89583333  0.60937500  1.0
