# generated using pymatgen
data_Zn3Ni
_symmetry_space_group_name_H-M   'P 1'
_cell_length_a   26.11025900
_cell_length_b   26.09880587
_cell_length_c   89.65027925
_cell_angle_alpha   22.79846679
_cell_angle_beta   112.29239208
_cell_angle_gamma   98.42886438
_symmetry_Int_Tables_number   1
_chemical_formula_structural   Zn3Ni
_chemical_formula_sum   'Zn432 Ni144'
_cell_volume   18049.27310269
_cell_formula_units_Z   144
loop_
 _symmetry_equiv_pos_site_id
 _symmetry_equiv_pos_as_xyz
  1  'x, y, z'
loop_
 _atom_site_type_symbol
 _atom_site_label
 _atom_site_symmetry_multiplicity
 _atom_site_fract_x
 _atom_site_fract_y
 _atom_site_fract_z
 _atom_site_occupancy
  Zn  Zn0  1  0.20833333  0.20833333  0.04276316  1.0
  Zn  Zn1  1  0.20833333  0.54166667  0.04276316  1.0
  Zn  Zn2  1  0.20833333  0.87500000  0.04276316  1.0
  Zn  Zn3  1  0.54166667  0.20833333  0.04276316  1.0
  Zn  Zn4  1  0.54166667  0.54166667  0.04276316  1.0
  Zn  Zn5  1  0.54166667  0.87500000  0.04276316  1.0
  Zn  Zn6  1  0.87500000  0.20833333  0.04276316  1.0
  Zn  Zn7  1  0.87500000  0.54166667  0.04276316  1.0
  Zn  Zn8  1  0.87500000  0.87500000  0.04276316  1.0
  Zn  Zn9  1  0.04166667  0.04166667  0.01644737  1.0
  Zn  Zn10  1  0.04166667  0.37500000  0.01644737  1.0
  Zn  Zn11  1  0.04166667  0.70833333  0.01644737  1.0
  Zn  Zn12  1  0.37500000  0.04166667  0.01644737  1.0
  Zn  Zn13  1  0.37500000  0.37500000  0.01644737  1.0
  Zn  Zn14  1  0.37500000  0.70833333  0.01644737  1.0
  Zn  Zn15  1  0.70833333  0.04166667  0.01644737  1.0
  Zn  Zn16  1  0.70833333  0.37500000  0.01644737  1.0
  Zn  Zn17  1  0.70833333  0.70833333  0.01644737  1.0
  Zn  Zn18  1  0.29166667  0.29166667  0.02960526  1.0
  Zn  Zn19  1  0.29166667  0.62500000  0.02960526  1.0
  Zn  Zn20  1  0.29166667  0.95833333  0.02960526  1.0
  Zn  Zn21  1  0.62500000  0.29166667  0.02960526  1.0
  Zn  Zn22  1  0.62500000  0.62500000  0.02960526  1.0
  Zn  Zn23  1  0.62500000  0.95833333  0.02960526  1.0
  Zn  Zn24  1  0.95833333  0.29166667  0.02960526  1.0
  Zn  Zn25  1  0.95833333  0.62500000  0.02960526  1.0
  Zn  Zn26  1  0.95833333  0.95833333  0.02960526  1.0
  Zn  Zn27  1  0.12500000  0.12500000  0.00328947  1.0
  Zn  Zn28  1  0.12500000  0.45833333  0.00328947  1.0
  Zn  Zn29  1  0.12500000  0.79166667  0.00328947  1.0
  Zn  Zn30  1  0.45833333  0.12500000  0.00328947  1.0
  Zn  Zn31  1  0.45833333  0.45833333  0.00328947  1.0
  Zn  Zn32  1  0.45833333  0.79166667  0.00328947  1.0
  Zn  Zn33  1  0.79166667  0.12500000  0.00328947  1.0
  Zn  Zn34  1  0.79166667  0.45833333  0.00328947  1.0
  Zn  Zn35  1  0.79166667  0.79166667  0.00328947  1.0
  Zn  Zn36  1  0.25000000  0.25000000  0.00986842  1.0
  Zn  Zn37  1  0.25000000  0.58333333  0.00986842  1.0
  Zn  Zn38  1  0.25000000  0.91666667  0.00986842  1.0
  Zn  Zn39  1  0.58333333  0.25000000  0.00986842  1.0
  Zn  Zn40  1  0.58333333  0.58333333  0.00986842  1.0
  Zn  Zn41  1  0.58333333  0.91666667  0.00986842  1.0
  Zn  Zn42  1  0.91666667  0.25000000  0.00986842  1.0
  Zn  Zn43  1  0.91666667  0.58333333  0.00986842  1.0
  Zn  Zn44  1  0.91666667  0.91666667  0.00986842  1.0
  Zn  Zn45  1  0.08333333  0.08333333  0.03618421  1.0
  Zn  Zn46  1  0.08333333  0.41666667  0.03618421  1.0
  Zn  Zn47  1  0.08333333  0.75000000  0.03618421  1.0
  Zn  Zn48  1  0.41666667  0.08333333  0.03618421  1.0
  Zn  Zn49  1  0.41666667  0.41666667  0.03618421  1.0
  Zn  Zn50  1  0.41666667  0.75000000  0.03618421  1.0
  Zn  Zn51  1  0.75000000  0.08333333  0.03618421  1.0
  Zn  Zn52  1  0.75000000  0.41666667  0.03618421  1.0
  Zn  Zn53  1  0.75000000  0.75000000  0.03618421  1.0
  Ni  Ni54  1  0.16666667  0.16666667  0.02302632  1.0
  Ni  Ni55  1  0.16666667  0.50000000  0.02302632  1.0
  Ni  Ni56  1  0.16666667  0.83333333  0.02302632  1.0
  Ni  Ni57  1  0.50000000  0.16666667  0.02302632  1.0
  Ni  Ni58  1  0.50000000  0.50000000  0.02302632  1.0
  Ni  Ni59  1  0.50000000  0.83333333  0.02302632  1.0
  Ni  Ni60  1  0.83333333  0.16666667  0.02302632  1.0
  Ni  Ni61  1  0.83333333  0.50000000  0.02302632  1.0
  Ni  Ni62  1  0.83333333  0.83333333  0.02302632  1.0
  Ni  Ni63  1  0.00000000  0.00000000  0.04934211  1.0
  Ni  Ni64  1  0.00000000  0.33333333  0.04934211  1.0
  Ni  Ni65  1  0.00000000  0.66666667  0.04934211  1.0
  Ni  Ni66  1  0.33333333  0.00000000  0.04934211  1.0
  Ni  Ni67  1  0.33333333  0.33333333  0.04934211  1.0
  Ni  Ni68  1  0.33333333  0.66666667  0.04934211  1.0
  Ni  Ni69  1  0.66666667  0.00000000  0.04934211  1.0
  Ni  Ni70  1  0.66666667  0.33333333  0.04934211  1.0
  Ni  Ni71  1  0.66666667  0.66666667  0.04934211  1.0
  Zn  Zn72  1  0.20833333  0.20833333  0.09539474  1.0
  Zn  Zn73  1  0.20833333  0.54166667  0.09539474  1.0
  Zn  Zn74  1  0.20833333  0.87500000  0.09539474  1.0
  Zn  Zn75  1  0.54166667  0.20833333  0.09539474  1.0
  Zn  Zn76  1  0.54166667  0.54166667  0.09539474  1.0
  Zn  Zn77  1  0.54166667  0.87500000  0.09539474  1.0
  Zn  Zn78  1  0.87500000  0.20833333  0.09539474  1.0
  Zn  Zn79  1  0.87500000  0.54166667  0.09539474  1.0
  Zn  Zn80  1  0.87500000  0.87500000  0.09539474  1.0
  Zn  Zn81  1  0.04166667  0.04166667  0.06907895  1.0
  Zn  Zn82  1  0.04166667  0.37500000  0.06907895  1.0
  Zn  Zn83  1  0.04166667  0.70833333  0.06907895  1.0
  Zn  Zn84  1  0.37500000  0.04166667  0.06907895  1.0
  Zn  Zn85  1  0.37500000  0.37500000  0.06907895  1.0
  Zn  Zn86  1  0.37500000  0.70833333  0.06907895  1.0
  Zn  Zn87  1  0.70833333  0.04166667  0.06907895  1.0
  Zn  Zn88  1  0.70833333  0.37500000  0.06907895  1.0
  Zn  Zn89  1  0.70833333  0.70833333  0.06907895  1.0
  Zn  Zn90  1  0.29166667  0.29166667  0.08223684  1.0
  Zn  Zn91  1  0.29166667  0.62500000  0.08223684  1.0
  Zn  Zn92  1  0.29166667  0.95833333  0.08223684  1.0
  Zn  Zn93  1  0.62500000  0.29166667  0.08223684  1.0
  Zn  Zn94  1  0.62500000  0.62500000  0.08223684  1.0
  Zn  Zn95  1  0.62500000  0.95833333  0.08223684  1.0
  Zn  Zn96  1  0.95833333  0.29166667  0.08223684  1.0
  Zn  Zn97  1  0.95833333  0.62500000  0.08223684  1.0
  Zn  Zn98  1  0.95833333  0.95833333  0.08223684  1.0
  Zn  Zn99  1  0.12500000  0.12500000  0.05592105  1.0
  Zn  Zn100  1  0.12500000  0.45833333  0.05592105  1.0
  Zn  Zn101  1  0.12500000  0.79166667  0.05592105  1.0
  Zn  Zn102  1  0.45833333  0.12500000  0.05592105  1.0
  Zn  Zn103  1  0.45833333  0.45833333  0.05592105  1.0
  Zn  Zn104  1  0.45833333  0.79166667  0.05592105  1.0
  Zn  Zn105  1  0.79166667  0.12500000  0.05592105  1.0
  Zn  Zn106  1  0.79166667  0.45833333  0.05592105  1.0
  Zn  Zn107  1  0.79166667  0.79166667  0.05592105  1.0
  Zn  Zn108  1  0.25000000  0.25000000  0.06250000  1.0
  Zn  Zn109  1  0.25000000  0.58333333  0.06250000  1.0
  Zn  Zn110  1  0.25000000  0.91666667  0.06250000  1.0
  Zn  Zn111  1  0.58333333  0.25000000  0.06250000  1.0
  Zn  Zn112  1  0.58333333  0.58333333  0.06250000  1.0
  Zn  Zn113  1  0.58333333  0.91666667  0.06250000  1.0
  Zn  Zn114  1  0.91666667  0.25000000  0.06250000  1.0
  Zn  Zn115  1  0.91666667  0.58333333  0.06250000  1.0
  Zn  Zn116  1  0.91666667  0.91666667  0.06250000  1.0
  Zn  Zn117  1  0.08333333  0.08333333  0.08881579  1.0
  Zn  Zn118  1  0.08333333  0.41666667  0.08881579  1.0
  Zn  Zn119  1  0.08333333  0.75000000  0.08881579  1.0
  Zn  Zn120  1  0.41666667  0.08333333  0.08881579  1.0
  Zn  Zn121  1  0.41666667  0.41666667  0.08881579  1.0
  Zn  Zn122  1  0.41666667  0.75000000  0.08881579  1.0
  Zn  Zn123  1  0.75000000  0.08333333  0.08881579  1.0
  Zn  Zn124  1  0.75000000  0.41666667  0.08881579  1.0
  Zn  Zn125  1  0.75000000  0.75000000  0.08881579  1.0
  Ni  Ni126  1  0.16666667  0.16666667  0.07565789  1.0
  Ni  Ni127  1  0.16666667  0.50000000  0.07565789  1.0
  Ni  Ni128  1  0.16666667  0.83333333  0.07565789  1.0
  Ni  Ni129  1  0.50000000  0.16666667  0.07565789  1.0
  Ni  Ni130  1  0.50000000  0.50000000  0.07565789  1.0
  Ni  Ni131  1  0.50000000  0.83333333  0.07565789  1.0
  Ni  Ni132  1  0.83333333  0.16666667  0.07565789  1.0
  Ni  Ni133  1  0.83333333  0.50000000  0.07565789  1.0
  Ni  Ni134  1  0.83333333  0.83333333  0.07565789  1.0
  Ni  Ni135  1  0.00000000  0.00000000  0.10197368  1.0
  Ni  Ni136  1  0.00000000  0.33333333  0.10197368  1.0
  Ni  Ni137  1  0.00000000  0.66666667  0.10197368  1.0
  Ni  Ni138  1  0.33333333  0.00000000  0.10197368  1.0
  Ni  Ni139  1  0.33333333  0.33333333  0.10197368  1.0
  Ni  Ni140  1  0.33333333  0.66666667  0.10197368  1.0
  Ni  Ni141  1  0.66666667  0.00000000  0.10197368  1.0
  Ni  Ni142  1  0.66666667  0.33333333  0.10197368  1.0
  Ni  Ni143  1  0.66666667  0.66666667  0.10197368  1.0
  Zn  Zn144  1  0.20833333  0.20833333  0.14802632  1.0
  Zn  Zn145  1  0.20833333  0.54166667  0.14802632  1.0
  Zn  Zn146  1  0.20833333  0.87500000  0.14802632  1.0
  Zn  Zn147  1  0.54166667  0.20833333  0.14802632  1.0
  Zn  Zn148  1  0.54166667  0.54166667  0.14802632  1.0
  Zn  Zn149  1  0.54166667  0.87500000  0.14802632  1.0
  Zn  Zn150  1  0.87500000  0.20833333  0.14802632  1.0
  Zn  Zn151  1  0.87500000  0.54166667  0.14802632  1.0
  Zn  Zn152  1  0.87500000  0.87500000  0.14802632  1.0
  Zn  Zn153  1  0.04166667  0.04166667  0.12171053  1.0
  Zn  Zn154  1  0.04166667  0.37500000  0.12171053  1.0
  Zn  Zn155  1  0.04166667  0.70833333  0.12171053  1.0
  Zn  Zn156  1  0.37500000  0.04166667  0.12171053  1.0
  Zn  Zn157  1  0.37500000  0.37500000  0.12171053  1.0
  Zn  Zn158  1  0.37500000  0.70833333  0.12171053  1.0
  Zn  Zn159  1  0.70833333  0.04166667  0.12171053  1.0
  Zn  Zn160  1  0.70833333  0.37500000  0.12171053  1.0
  Zn  Zn161  1  0.70833333  0.70833333  0.12171053  1.0
  Zn  Zn162  1  0.29166667  0.29166667  0.13486842  1.0
  Zn  Zn163  1  0.29166667  0.62500000  0.13486842  1.0
  Zn  Zn164  1  0.29166667  0.95833333  0.13486842  1.0
  Zn  Zn165  1  0.62500000  0.29166667  0.13486842  1.0
  Zn  Zn166  1  0.62500000  0.62500000  0.13486842  1.0
  Zn  Zn167  1  0.62500000  0.95833333  0.13486842  1.0
  Zn  Zn168  1  0.95833333  0.29166667  0.13486842  1.0
  Zn  Zn169  1  0.95833333  0.62500000  0.13486842  1.0
  Zn  Zn170  1  0.95833333  0.95833333  0.13486842  1.0
  Zn  Zn171  1  0.12500000  0.12500000  0.10855263  1.0
  Zn  Zn172  1  0.12500000  0.45833333  0.10855263  1.0
  Zn  Zn173  1  0.12500000  0.79166667  0.10855263  1.0
  Zn  Zn174  1  0.45833333  0.12500000  0.10855263  1.0
  Zn  Zn175  1  0.45833333  0.45833333  0.10855263  1.0
  Zn  Zn176  1  0.45833333  0.79166667  0.10855263  1.0
  Zn  Zn177  1  0.79166667  0.12500000  0.10855263  1.0
  Zn  Zn178  1  0.79166667  0.45833333  0.10855263  1.0
  Zn  Zn179  1  0.79166667  0.79166667  0.10855263  1.0
  Zn  Zn180  1  0.25000000  0.25000000  0.11513158  1.0
  Zn  Zn181  1  0.25000000  0.58333333  0.11513158  1.0
  Zn  Zn182  1  0.25000000  0.91666667  0.11513158  1.0
  Zn  Zn183  1  0.58333333  0.25000000  0.11513158  1.0
  Zn  Zn184  1  0.58333333  0.58333333  0.11513158  1.0
  Zn  Zn185  1  0.58333333  0.91666667  0.11513158  1.0
  Zn  Zn186  1  0.91666667  0.25000000  0.11513158  1.0
  Zn  Zn187  1  0.91666667  0.58333333  0.11513158  1.0
  Zn  Zn188  1  0.91666667  0.91666667  0.11513158  1.0
  Zn  Zn189  1  0.08333333  0.08333333  0.14144737  1.0
  Zn  Zn190  1  0.08333333  0.41666667  0.14144737  1.0
  Zn  Zn191  1  0.08333333  0.75000000  0.14144737  1.0
  Zn  Zn192  1  0.41666667  0.08333333  0.14144737  1.0
  Zn  Zn193  1  0.41666667  0.41666667  0.14144737  1.0
  Zn  Zn194  1  0.41666667  0.75000000  0.14144737  1.0
  Zn  Zn195  1  0.75000000  0.08333333  0.14144737  1.0
  Zn  Zn196  1  0.75000000  0.41666667  0.14144737  1.0
  Zn  Zn197  1  0.75000000  0.75000000  0.14144737  1.0
  Ni  Ni198  1  0.16666667  0.16666667  0.12828947  1.0
  Ni  Ni199  1  0.16666667  0.50000000  0.12828947  1.0
  Ni  Ni200  1  0.16666667  0.83333333  0.12828947  1.0
  Ni  Ni201  1  0.50000000  0.16666667  0.12828947  1.0
  Ni  Ni202  1  0.50000000  0.50000000  0.12828947  1.0
  Ni  Ni203  1  0.50000000  0.83333333  0.12828947  1.0
  Ni  Ni204  1  0.83333333  0.16666667  0.12828947  1.0
  Ni  Ni205  1  0.83333333  0.50000000  0.12828947  1.0
  Ni  Ni206  1  0.83333333  0.83333333  0.12828947  1.0
  Ni  Ni207  1  0.00000000  0.00000000  0.15460526  1.0
  Ni  Ni208  1  0.00000000  0.33333333  0.15460526  1.0
  Ni  Ni209  1  0.00000000  0.66666667  0.15460526  1.0
  Ni  Ni210  1  0.33333333  0.00000000  0.15460526  1.0
  Ni  Ni211  1  0.33333333  0.33333333  0.15460526  1.0
  Ni  Ni212  1  0.33333333  0.66666667  0.15460526  1.0
  Ni  Ni213  1  0.66666667  0.00000000  0.15460526  1.0
  Ni  Ni214  1  0.66666667  0.33333333  0.15460526  1.0
  Ni  Ni215  1  0.66666667  0.66666667  0.15460526  1.0
  Zn  Zn216  1  0.20833333  0.20833333  0.20065789  1.0
  Zn  Zn217  1  0.20833333  0.54166667  0.20065789  1.0
  Zn  Zn218  1  0.20833333  0.87500000  0.20065789  1.0
  Zn  Zn219  1  0.54166667  0.20833333  0.20065789  1.0
  Zn  Zn220  1  0.54166667  0.54166667  0.20065789  1.0
  Zn  Zn221  1  0.54166667  0.87500000  0.20065789  1.0
  Zn  Zn222  1  0.87500000  0.20833333  0.20065789  1.0
  Zn  Zn223  1  0.87500000  0.54166667  0.20065789  1.0
  Zn  Zn224  1  0.87500000  0.87500000  0.20065789  1.0
  Zn  Zn225  1  0.04166667  0.04166667  0.17434211  1.0
  Zn  Zn226  1  0.04166667  0.37500000  0.17434211  1.0
  Zn  Zn227  1  0.04166667  0.70833333  0.17434211  1.0
  Zn  Zn228  1  0.37500000  0.04166667  0.17434211  1.0
  Zn  Zn229  1  0.37500000  0.37500000  0.17434211  1.0
  Zn  Zn230  1  0.37500000  0.70833333  0.17434211  1.0
  Zn  Zn231  1  0.70833333  0.04166667  0.17434211  1.0
  Zn  Zn232  1  0.70833333  0.37500000  0.17434211  1.0
  Zn  Zn233  1  0.70833333  0.70833333  0.17434211  1.0
  Zn  Zn234  1  0.29166667  0.29166667  0.18750000  1.0
  Zn  Zn235  1  0.29166667  0.62500000  0.18750000  1.0
  Zn  Zn236  1  0.29166667  0.95833333  0.18750000  1.0
  Zn  Zn237  1  0.62500000  0.29166667  0.18750000  1.0
  Zn  Zn238  1  0.62500000  0.62500000  0.18750000  1.0
  Zn  Zn239  1  0.62500000  0.95833333  0.18750000  1.0
  Zn  Zn240  1  0.95833333  0.29166667  0.18750000  1.0
  Zn  Zn241  1  0.95833333  0.62500000  0.18750000  1.0
  Zn  Zn242  1  0.95833333  0.95833333  0.18750000  1.0
  Zn  Zn243  1  0.12500000  0.12500000  0.16118421  1.0
  Zn  Zn244  1  0.12500000  0.45833333  0.16118421  1.0
  Zn  Zn245  1  0.12500000  0.79166667  0.16118421  1.0
  Zn  Zn246  1  0.45833333  0.12500000  0.16118421  1.0
  Zn  Zn247  1  0.45833333  0.45833333  0.16118421  1.0
  Zn  Zn248  1  0.45833333  0.79166667  0.16118421  1.0
  Zn  Zn249  1  0.79166667  0.12500000  0.16118421  1.0
  Zn  Zn250  1  0.79166667  0.45833333  0.16118421  1.0
  Zn  Zn251  1  0.79166667  0.79166667  0.16118421  1.0
  Zn  Zn252  1  0.25000000  0.25000000  0.16776316  1.0
  Zn  Zn253  1  0.25000000  0.58333333  0.16776316  1.0
  Zn  Zn254  1  0.25000000  0.91666667  0.16776316  1.0
  Zn  Zn255  1  0.58333333  0.25000000  0.16776316  1.0
  Zn  Zn256  1  0.58333333  0.58333333  0.16776316  1.0
  Zn  Zn257  1  0.58333333  0.91666667  0.16776316  1.0
  Zn  Zn258  1  0.91666667  0.25000000  0.16776316  1.0
  Zn  Zn259  1  0.91666667  0.58333333  0.16776316  1.0
  Zn  Zn260  1  0.91666667  0.91666667  0.16776316  1.0
  Zn  Zn261  1  0.08333333  0.08333333  0.19407895  1.0
  Zn  Zn262  1  0.08333333  0.41666667  0.19407895  1.0
  Zn  Zn263  1  0.08333333  0.75000000  0.19407895  1.0
  Zn  Zn264  1  0.41666667  0.08333333  0.19407895  1.0
  Zn  Zn265  1  0.41666667  0.41666667  0.19407895  1.0
  Zn  Zn266  1  0.41666667  0.75000000  0.19407895  1.0
  Zn  Zn267  1  0.75000000  0.08333333  0.19407895  1.0
  Zn  Zn268  1  0.75000000  0.41666667  0.19407895  1.0
  Zn  Zn269  1  0.75000000  0.75000000  0.19407895  1.0
  Ni  Ni270  1  0.16666667  0.16666667  0.18092105  1.0
  Ni  Ni271  1  0.16666667  0.50000000  0.18092105  1.0
  Ni  Ni272  1  0.16666667  0.83333333  0.18092105  1.0
  Ni  Ni273  1  0.50000000  0.16666667  0.18092105  1.0
  Ni  Ni274  1  0.50000000  0.50000000  0.18092105  1.0
  Ni  Ni275  1  0.50000000  0.83333333  0.18092105  1.0
  Ni  Ni276  1  0.83333333  0.16666667  0.18092105  1.0
  Ni  Ni277  1  0.83333333  0.50000000  0.18092105  1.0
  Ni  Ni278  1  0.83333333  0.83333333  0.18092105  1.0
  Ni  Ni279  1  0.00000000  0.00000000  0.20723684  1.0
  Ni  Ni280  1  0.00000000  0.33333333  0.20723684  1.0
  Ni  Ni281  1  0.00000000  0.66666667  0.20723684  1.0
  Ni  Ni282  1  0.33333333  0.00000000  0.20723684  1.0
  Ni  Ni283  1  0.33333333  0.33333333  0.20723684  1.0
  Ni  Ni284  1  0.33333333  0.66666667  0.20723684  1.0
  Ni  Ni285  1  0.66666667  0.00000000  0.20723684  1.0
  Ni  Ni286  1  0.66666667  0.33333333  0.20723684  1.0
  Ni  Ni287  1  0.66666667  0.66666667  0.20723684  1.0
  Zn  Zn288  1  0.20833333  0.20833333  0.25328947  1.0
  Zn  Zn289  1  0.20833333  0.54166667  0.25328947  1.0
  Zn  Zn290  1  0.20833333  0.87500000  0.25328947  1.0
  Zn  Zn291  1  0.54166667  0.20833333  0.25328947  1.0
  Zn  Zn292  1  0.54166667  0.54166667  0.25328947  1.0
  Zn  Zn293  1  0.54166667  0.87500000  0.25328947  1.0
  Zn  Zn294  1  0.87500000  0.20833333  0.25328947  1.0
  Zn  Zn295  1  0.87500000  0.54166667  0.25328947  1.0
  Zn  Zn296  1  0.87500000  0.87500000  0.25328947  1.0
  Zn  Zn297  1  0.04166667  0.04166667  0.22697368  1.0
  Zn  Zn298  1  0.04166667  0.37500000  0.22697368  1.0
  Zn  Zn299  1  0.04166667  0.70833333  0.22697368  1.0
  Zn  Zn300  1  0.37500000  0.04166667  0.22697368  1.0
  Zn  Zn301  1  0.37500000  0.37500000  0.22697368  1.0
  Zn  Zn302  1  0.37500000  0.70833333  0.22697368  1.0
  Zn  Zn303  1  0.70833333  0.04166667  0.22697368  1.0
  Zn  Zn304  1  0.70833333  0.37500000  0.22697368  1.0
  Zn  Zn305  1  0.70833333  0.70833333  0.22697368  1.0
  Zn  Zn306  1  0.29166667  0.29166667  0.24013158  1.0
  Zn  Zn307  1  0.29166667  0.62500000  0.24013158  1.0
  Zn  Zn308  1  0.29166667  0.95833333  0.24013158  1.0
  Zn  Zn309  1  0.62500000  0.29166667  0.24013158  1.0
  Zn  Zn310  1  0.62500000  0.62500000  0.24013158  1.0
  Zn  Zn311  1  0.62500000  0.95833333  0.24013158  1.0
  Zn  Zn312  1  0.95833333  0.29166667  0.24013158  1.0
  Zn  Zn313  1  0.95833333  0.62500000  0.24013158  1.0
  Zn  Zn314  1  0.95833333  0.95833333  0.24013158  1.0
  Zn  Zn315  1  0.12500000  0.12500000  0.21381579  1.0
  Zn  Zn316  1  0.12500000  0.45833333  0.21381579  1.0
  Zn  Zn317  1  0.12500000  0.79166667  0.21381579  1.0
  Zn  Zn318  1  0.45833333  0.12500000  0.21381579  1.0
  Zn  Zn319  1  0.45833333  0.45833333  0.21381579  1.0
  Zn  Zn320  1  0.45833333  0.79166667  0.21381579  1.0
  Zn  Zn321  1  0.79166667  0.12500000  0.21381579  1.0
  Zn  Zn322  1  0.79166667  0.45833333  0.21381579  1.0
  Zn  Zn323  1  0.79166667  0.79166667  0.21381579  1.0
  Zn  Zn324  1  0.25000000  0.25000000  0.22039474  1.0
  Zn  Zn325  1  0.25000000  0.58333333  0.22039474  1.0
  Zn  Zn326  1  0.25000000  0.91666667  0.22039474  1.0
  Zn  Zn327  1  0.58333333  0.25000000  0.22039474  1.0
  Zn  Zn328  1  0.58333333  0.58333333  0.22039474  1.0
  Zn  Zn329  1  0.58333333  0.91666667  0.22039474  1.0
  Zn  Zn330  1  0.91666667  0.25000000  0.22039474  1.0
  Zn  Zn331  1  0.91666667  0.58333333  0.22039474  1.0
  Zn  Zn332  1  0.91666667  0.91666667  0.22039474  1.0
  Zn  Zn333  1  0.08333333  0.08333333  0.24671053  1.0
  Zn  Zn334  1  0.08333333  0.41666667  0.24671053  1.0
  Zn  Zn335  1  0.08333333  0.75000000  0.24671053  1.0
  Zn  Zn336  1  0.41666667  0.08333333  0.24671053  1.0
  Zn  Zn337  1  0.41666667  0.41666667  0.24671053  1.0
  Zn  Zn338  1  0.41666667  0.75000000  0.24671053  1.0
  Zn  Zn339  1  0.75000000  0.08333333  0.24671053  1.0
  Zn  Zn340  1  0.75000000  0.41666667  0.24671053  1.0
  Zn  Zn341  1  0.75000000  0.75000000  0.24671053  1.0
  Ni  Ni342  1  0.16666667  0.16666667  0.23355263  1.0
  Ni  Ni343  1  0.16666667  0.50000000  0.23355263  1.0
  Ni  Ni344  1  0.16666667  0.83333333  0.23355263  1.0
  Ni  Ni345  1  0.50000000  0.16666667  0.23355263  1.0
  Ni  Ni346  1  0.50000000  0.50000000  0.23355263  1.0
  Ni  Ni347  1  0.50000000  0.83333333  0.23355263  1.0
  Ni  Ni348  1  0.83333333  0.16666667  0.23355263  1.0
  Ni  Ni349  1  0.83333333  0.50000000  0.23355263  1.0
  Ni  Ni350  1  0.83333333  0.83333333  0.23355263  1.0
  Ni  Ni351  1  0.00000000  0.00000000  0.25986842  1.0
  Ni  Ni352  1  0.00000000  0.33333333  0.25986842  1.0
  Ni  Ni353  1  0.00000000  0.66666667  0.25986842  1.0
  Ni  Ni354  1  0.33333333  0.00000000  0.25986842  1.0
  Ni  Ni355  1  0.33333333  0.33333333  0.25986842  1.0
  Ni  Ni356  1  0.33333333  0.66666667  0.25986842  1.0
  Ni  Ni357  1  0.66666667  0.00000000  0.25986842  1.0
  Ni  Ni358  1  0.66666667  0.33333333  0.25986842  1.0
  Ni  Ni359  1  0.66666667  0.66666667  0.25986842  1.0
  Zn  Zn360  1  0.20833333  0.20833333  0.30592105  1.0
  Zn  Zn361  1  0.20833333  0.54166667  0.30592105  1.0
  Zn  Zn362  1  0.20833333  0.87500000  0.30592105  1.0
  Zn  Zn363  1  0.54166667  0.20833333  0.30592105  1.0
  Zn  Zn364  1  0.54166667  0.54166667  0.30592105  1.0
  Zn  Zn365  1  0.54166667  0.87500000  0.30592105  1.0
  Zn  Zn366  1  0.87500000  0.20833333  0.30592105  1.0
  Zn  Zn367  1  0.87500000  0.54166667  0.30592105  1.0
  Zn  Zn368  1  0.87500000  0.87500000  0.30592105  1.0
  Zn  Zn369  1  0.04166667  0.04166667  0.27960526  1.0
  Zn  Zn370  1  0.04166667  0.37500000  0.27960526  1.0
  Zn  Zn371  1  0.04166667  0.70833333  0.27960526  1.0
  Zn  Zn372  1  0.37500000  0.04166667  0.27960526  1.0
  Zn  Zn373  1  0.37500000  0.37500000  0.27960526  1.0
  Zn  Zn374  1  0.37500000  0.70833333  0.27960526  1.0
  Zn  Zn375  1  0.70833333  0.04166667  0.27960526  1.0
  Zn  Zn376  1  0.70833333  0.37500000  0.27960526  1.0
  Zn  Zn377  1  0.70833333  0.70833333  0.27960526  1.0
  Zn  Zn378  1  0.29166667  0.29166667  0.29276316  1.0
  Zn  Zn379  1  0.29166667  0.62500000  0.29276316  1.0
  Zn  Zn380  1  0.29166667  0.95833333  0.29276316  1.0
  Zn  Zn381  1  0.62500000  0.29166667  0.29276316  1.0
  Zn  Zn382  1  0.62500000  0.62500000  0.29276316  1.0
  Zn  Zn383  1  0.62500000  0.95833333  0.29276316  1.0
  Zn  Zn384  1  0.95833333  0.29166667  0.29276316  1.0
  Zn  Zn385  1  0.95833333  0.62500000  0.29276316  1.0
  Zn  Zn386  1  0.95833333  0.95833333  0.29276316  1.0
  Zn  Zn387  1  0.12500000  0.12500000  0.26644737  1.0
  Zn  Zn388  1  0.12500000  0.45833333  0.26644737  1.0
  Zn  Zn389  1  0.12500000  0.79166667  0.26644737  1.0
  Zn  Zn390  1  0.45833333  0.12500000  0.26644737  1.0
  Zn  Zn391  1  0.45833333  0.45833333  0.26644737  1.0
  Zn  Zn392  1  0.45833333  0.79166667  0.26644737  1.0
  Zn  Zn393  1  0.79166667  0.12500000  0.26644737  1.0
  Zn  Zn394  1  0.79166667  0.45833333  0.26644737  1.0
  Zn  Zn395  1  0.79166667  0.79166667  0.26644737  1.0
  Zn  Zn396  1  0.25000000  0.25000000  0.27302632  1.0
  Zn  Zn397  1  0.25000000  0.58333333  0.27302632  1.0
  Zn  Zn398  1  0.25000000  0.91666667  0.27302632  1.0
  Zn  Zn399  1  0.58333333  0.25000000  0.27302632  1.0
  Zn  Zn400  1  0.58333333  0.58333333  0.27302632  1.0
  Zn  Zn401  1  0.58333333  0.91666667  0.27302632  1.0
  Zn  Zn402  1  0.91666667  0.25000000  0.27302632  1.0
  Zn  Zn403  1  0.91666667  0.58333333  0.27302632  1.0
  Zn  Zn404  1  0.91666667  0.91666667  0.27302632  1.0
  Zn  Zn405  1  0.08333333  0.08333333  0.29934211  1.0
  Zn  Zn406  1  0.08333333  0.41666667  0.29934211  1.0
  Zn  Zn407  1  0.08333333  0.75000000  0.29934211  1.0
  Zn  Zn408  1  0.41666667  0.08333333  0.29934211  1.0
  Zn  Zn409  1  0.41666667  0.41666667  0.29934211  1.0
  Zn  Zn410  1  0.41666667  0.75000000  0.29934211  1.0
  Zn  Zn411  1  0.75000000  0.08333333  0.29934211  1.0
  Zn  Zn412  1  0.75000000  0.41666667  0.29934211  1.0
  Zn  Zn413  1  0.75000000  0.75000000  0.29934211  1.0
  Ni  Ni414  1  0.16666667  0.16666667  0.28618421  1.0
  Ni  Ni415  1  0.16666667  0.50000000  0.28618421  1.0
  Ni  Ni416  1  0.16666667  0.83333333  0.28618421  1.0
  Ni  Ni417  1  0.50000000  0.16666667  0.28618421  1.0
  Ni  Ni418  1  0.50000000  0.50000000  0.28618421  1.0
  Ni  Ni419  1  0.50000000  0.83333333  0.28618421  1.0
  Ni  Ni420  1  0.83333333  0.16666667  0.28618421  1.0
  Ni  Ni421  1  0.83333333  0.50000000  0.28618421  1.0
  Ni  Ni422  1  0.83333333  0.83333333  0.28618421  1.0
  Ni  Ni423  1  0.00000000  0.00000000  0.31250000  1.0
  Ni  Ni424  1  0.00000000  0.33333333  0.31250000  1.0
  Ni  Ni425  1  0.00000000  0.66666667  0.31250000  1.0
  Ni  Ni426  1  0.33333333  0.00000000  0.31250000  1.0
  Ni  Ni427  1  0.33333333  0.33333333  0.31250000  1.0
  Ni  Ni428  1  0.33333333  0.66666667  0.31250000  1.0
  Ni  Ni429  1  0.66666667  0.00000000  0.31250000  1.0
  Ni  Ni430  1  0.66666667  0.33333333  0.31250000  1.0
  Ni  Ni431  1  0.66666667  0.66666667  0.31250000  1.0
  Zn  Zn432  1  0.20833333  0.20833333  0.35855263  1.0
  Zn  Zn433  1  0.20833333  0.54166667  0.35855263  1.0
  Zn  Zn434  1  0.20833333  0.87500000  0.35855263  1.0
  Zn  Zn435  1  0.54166667  0.20833333  0.35855263  1.0
  Zn  Zn436  1  0.54166667  0.54166667  0.35855263  1.0
  Zn  Zn437  1  0.54166667  0.87500000  0.35855263  1.0
  Zn  Zn438  1  0.87500000  0.20833333  0.35855263  1.0
  Zn  Zn439  1  0.87500000  0.54166667  0.35855263  1.0
  Zn  Zn440  1  0.87500000  0.87500000  0.35855263  1.0
  Zn  Zn441  1  0.04166667  0.04166667  0.33223684  1.0
  Zn  Zn442  1  0.04166667  0.37500000  0.33223684  1.0
  Zn  Zn443  1  0.04166667  0.70833333  0.33223684  1.0
  Zn  Zn444  1  0.37500000  0.04166667  0.33223684  1.0
  Zn  Zn445  1  0.37500000  0.37500000  0.33223684  1.0
  Zn  Zn446  1  0.37500000  0.70833333  0.33223684  1.0
  Zn  Zn447  1  0.70833333  0.04166667  0.33223684  1.0
  Zn  Zn448  1  0.70833333  0.37500000  0.33223684  1.0
  Zn  Zn449  1  0.70833333  0.70833333  0.33223684  1.0
  Zn  Zn450  1  0.29166667  0.29166667  0.34539474  1.0
  Zn  Zn451  1  0.29166667  0.62500000  0.34539474  1.0
  Zn  Zn452  1  0.29166667  0.95833333  0.34539474  1.0
  Zn  Zn453  1  0.62500000  0.29166667  0.34539474  1.0
  Zn  Zn454  1  0.62500000  0.62500000  0.34539474  1.0
  Zn  Zn455  1  0.62500000  0.95833333  0.34539474  1.0
  Zn  Zn456  1  0.95833333  0.29166667  0.34539474  1.0
  Zn  Zn457  1  0.95833333  0.62500000  0.34539474  1.0
  Zn  Zn458  1  0.95833333  0.95833333  0.34539474  1.0
  Zn  Zn459  1  0.12500000  0.12500000  0.31907895  1.0
  Zn  Zn460  1  0.12500000  0.45833333  0.31907895  1.0
  Zn  Zn461  1  0.12500000  0.79166667  0.31907895  1.0
  Zn  Zn462  1  0.45833333  0.12500000  0.31907895  1.0
  Zn  Zn463  1  0.45833333  0.45833333  0.31907895  1.0
  Zn  Zn464  1  0.45833333  0.79166667  0.31907895  1.0
  Zn  Zn465  1  0.79166667  0.12500000  0.31907895  1.0
  Zn  Zn466  1  0.79166667  0.45833333  0.31907895  1.0
  Zn  Zn467  1  0.79166667  0.79166667  0.31907895  1.0
  Zn  Zn468  1  0.25000000  0.25000000  0.32565789  1.0
  Zn  Zn469  1  0.25000000  0.58333333  0.32565789  1.0
  Zn  Zn470  1  0.25000000  0.91666667  0.32565789  1.0
  Zn  Zn471  1  0.58333333  0.25000000  0.32565789  1.0
  Zn  Zn472  1  0.58333333  0.58333333  0.32565789  1.0
  Zn  Zn473  1  0.58333333  0.91666667  0.32565789  1.0
  Zn  Zn474  1  0.91666667  0.25000000  0.32565789  1.0
  Zn  Zn475  1  0.91666667  0.58333333  0.32565789  1.0
  Zn  Zn476  1  0.91666667  0.91666667  0.32565789  1.0
  Zn  Zn477  1  0.08333333  0.08333333  0.35197368  1.0
  Zn  Zn478  1  0.08333333  0.41666667  0.35197368  1.0
  Zn  Zn479  1  0.08333333  0.75000000  0.35197368  1.0
  Zn  Zn480  1  0.41666667  0.08333333  0.35197368  1.0
  Zn  Zn481  1  0.41666667  0.41666667  0.35197368  1.0
  Zn  Zn482  1  0.41666667  0.75000000  0.35197368  1.0
  Zn  Zn483  1  0.75000000  0.08333333  0.35197368  1.0
  Zn  Zn484  1  0.75000000  0.41666667  0.35197368  1.0
  Zn  Zn485  1  0.75000000  0.75000000  0.35197368  1.0
  Ni  Ni486  1  0.16666667  0.16666667  0.33881579  1.0
  Ni  Ni487  1  0.16666667  0.50000000  0.33881579  1.0
  Ni  Ni488  1  0.16666667  0.83333333  0.33881579  1.0
  Ni  Ni489  1  0.50000000  0.16666667  0.33881579  1.0
  Ni  Ni490  1  0.50000000  0.50000000  0.33881579  1.0
  Ni  Ni491  1  0.50000000  0.83333333  0.33881579  1.0
  Ni  Ni492  1  0.83333333  0.16666667  0.33881579  1.0
  Ni  Ni493  1  0.83333333  0.50000000  0.33881579  1.0
  Ni  Ni494  1  0.83333333  0.83333333  0.33881579  1.0
  Ni  Ni495  1  0.00000000  0.00000000  0.36513158  1.0
  Ni  Ni496  1  0.00000000  0.33333333  0.36513158  1.0
  Ni  Ni497  1  0.00000000  0.66666667  0.36513158  1.0
  Ni  Ni498  1  0.33333333  0.00000000  0.36513158  1.0
  Ni  Ni499  1  0.33333333  0.33333333  0.36513158  1.0
  Ni  Ni500  1  0.33333333  0.66666667  0.36513158  1.0
  Ni  Ni501  1  0.66666667  0.00000000  0.36513158  1.0
  Ni  Ni502  1  0.66666667  0.33333333  0.36513158  1.0
  Ni  Ni503  1  0.66666667  0.66666667  0.36513158  1.0
  Zn  Zn504  1  0.20833333  0.20833333  0.41118421  1.0
  Zn  Zn505  1  0.20833333  0.54166667  0.41118421  1.0
  Zn  Zn506  1  0.20833333  0.87500000  0.41118421  1.0
  Zn  Zn507  1  0.54166667  0.20833333  0.41118421  1.0
  Zn  Zn508  1  0.54166667  0.54166667  0.41118421  1.0
  Zn  Zn509  1  0.54166667  0.87500000  0.41118421  1.0
  Zn  Zn510  1  0.87500000  0.20833333  0.41118421  1.0
  Zn  Zn511  1  0.87500000  0.54166667  0.41118421  1.0
  Zn  Zn512  1  0.87500000  0.87500000  0.41118421  1.0
  Zn  Zn513  1  0.04166667  0.04166667  0.38486842  1.0
  Zn  Zn514  1  0.04166667  0.37500000  0.38486842  1.0
  Zn  Zn515  1  0.04166667  0.70833333  0.38486842  1.0
  Zn  Zn516  1  0.37500000  0.04166667  0.38486842  1.0
  Zn  Zn517  1  0.37500000  0.37500000  0.38486842  1.0
  Zn  Zn518  1  0.37500000  0.70833333  0.38486842  1.0
  Zn  Zn519  1  0.70833333  0.04166667  0.38486842  1.0
  Zn  Zn520  1  0.70833333  0.37500000  0.38486842  1.0
  Zn  Zn521  1  0.70833333  0.70833333  0.38486842  1.0
  Zn  Zn522  1  0.29166667  0.29166667  0.39802632  1.0
  Zn  Zn523  1  0.29166667  0.62500000  0.39802632  1.0
  Zn  Zn524  1  0.29166667  0.95833333  0.39802632  1.0
  Zn  Zn525  1  0.62500000  0.29166667  0.39802632  1.0
  Zn  Zn526  1  0.62500000  0.62500000  0.39802632  1.0
  Zn  Zn527  1  0.62500000  0.95833333  0.39802632  1.0
  Zn  Zn528  1  0.95833333  0.29166667  0.39802632  1.0
  Zn  Zn529  1  0.95833333  0.62500000  0.39802632  1.0
  Zn  Zn530  1  0.95833333  0.95833333  0.39802632  1.0
  Zn  Zn531  1  0.12500000  0.12500000  0.37171053  1.0
  Zn  Zn532  1  0.12500000  0.45833333  0.37171053  1.0
  Zn  Zn533  1  0.12500000  0.79166667  0.37171053  1.0
  Zn  Zn534  1  0.45833333  0.12500000  0.37171053  1.0
  Zn  Zn535  1  0.45833333  0.45833333  0.37171053  1.0
  Zn  Zn536  1  0.45833333  0.79166667  0.37171053  1.0
  Zn  Zn537  1  0.79166667  0.12500000  0.37171053  1.0
  Zn  Zn538  1  0.79166667  0.45833333  0.37171053  1.0
  Zn  Zn539  1  0.79166667  0.79166667  0.37171053  1.0
  Zn  Zn540  1  0.25000000  0.25000000  0.37828947  1.0
  Zn  Zn541  1  0.25000000  0.58333333  0.37828947  1.0
  Zn  Zn542  1  0.25000000  0.91666667  0.37828947  1.0
  Zn  Zn543  1  0.58333333  0.25000000  0.37828947  1.0
  Zn  Zn544  1  0.58333333  0.58333333  0.37828947  1.0
  Zn  Zn545  1  0.58333333  0.91666667  0.37828947  1.0
  Zn  Zn546  1  0.91666667  0.25000000  0.37828947  1.0
  Zn  Zn547  1  0.91666667  0.58333333  0.37828947  1.0
  Zn  Zn548  1  0.91666667  0.91666667  0.37828947  1.0
  Zn  Zn549  1  0.08333333  0.08333333  0.40460526  1.0
  Zn  Zn550  1  0.08333333  0.41666667  0.40460526  1.0
  Zn  Zn551  1  0.08333333  0.75000000  0.40460526  1.0
  Zn  Zn552  1  0.41666667  0.08333333  0.40460526  1.0
  Zn  Zn553  1  0.41666667  0.41666667  0.40460526  1.0
  Zn  Zn554  1  0.41666667  0.75000000  0.40460526  1.0
  Zn  Zn555  1  0.75000000  0.08333333  0.40460526  1.0
  Zn  Zn556  1  0.75000000  0.41666667  0.40460526  1.0
  Zn  Zn557  1  0.75000000  0.75000000  0.40460526  1.0
  Ni  Ni558  1  0.16666667  0.16666667  0.39144737  1.0
  Ni  Ni559  1  0.16666667  0.50000000  0.39144737  1.0
  Ni  Ni560  1  0.16666667  0.83333333  0.39144737  1.0
  Ni  Ni561  1  0.50000000  0.16666667  0.39144737  1.0
  Ni  Ni562  1  0.50000000  0.50000000  0.39144737  1.0
  Ni  Ni563  1  0.50000000  0.83333333  0.39144737  1.0
  Ni  Ni564  1  0.83333333  0.16666667  0.39144737  1.0
  Ni  Ni565  1  0.83333333  0.50000000  0.39144737  1.0
  Ni  Ni566  1  0.83333333  0.83333333  0.39144737  1.0
  Ni  Ni567  1  0.00000000  0.00000000  0.41776316  1.0
  Ni  Ni568  1  0.00000000  0.33333333  0.41776316  1.0
  Ni  Ni569  1  0.00000000  0.66666667  0.41776316  1.0
  Ni  Ni570  1  0.33333333  0.00000000  0.41776316  1.0
  Ni  Ni571  1  0.33333333  0.33333333  0.41776316  1.0
  Ni  Ni572  1  0.33333333  0.66666667  0.41776316  1.0
  Ni  Ni573  1  0.66666667  0.00000000  0.41776316  1.0
  Ni  Ni574  1  0.66666667  0.33333333  0.41776316  1.0
  Ni  Ni575  1  0.66666667  0.66666667  0.41776316  1.0
