# generated using pymatgen
data_Zn3Ni
_symmetry_space_group_name_H-M   'P 1'
_cell_length_a   15.51407267
_cell_length_b   26.09880587
_cell_length_c   103.80558650
_cell_angle_alpha   157.20153321
_cell_angle_beta   123.22956394
_cell_angle_gamma   72.70941053
_symmetry_Int_Tables_number   1
_chemical_formula_structural   Zn3Ni
_chemical_formula_sum   'Zn243 Ni81'
_cell_volume   10449.57916472
_cell_formula_units_Z   81
loop_
 _symmetry_equiv_pos_site_id
 _symmetry_equiv_pos_as_xyz
  1  'x, y, z'
loop_
 _atom_site_type_symbol
 _atom_site_label
 _atom_site_symmetry_multiplicity
 _atom_site_fract_x
 _atom_site_fract_y
 _atom_site_fract_z
 _atom_site_occupancy
  Zn  Zn0  1  0.08333333  0.16666667  0.01136364  1.0
  Zn  Zn1  1  0.08333333  0.50000000  0.01136364  1.0
  Zn  Zn2  1  0.08333333  0.83333333  0.01136364  1.0
  Zn  Zn3  1  0.41666667  0.16666667  0.01136364  1.0
  Zn  Zn4  1  0.41666667  0.50000000  0.01136364  1.0
  Zn  Zn5  1  0.41666667  0.83333333  0.01136364  1.0
  Zn  Zn6  1  0.75000000  0.16666667  0.01136364  1.0
  Zn  Zn7  1  0.75000000  0.50000000  0.01136364  1.0
  Zn  Zn8  1  0.75000000  0.83333333  0.01136364  1.0
  Zn  Zn9  1  0.25000000  0.16666667  0.01136364  1.0
  Zn  Zn10  1  0.25000000  0.50000000  0.01136364  1.0
  Zn  Zn11  1  0.25000000  0.83333333  0.01136364  1.0
  Zn  Zn12  1  0.58333333  0.16666667  0.01136364  1.0
  Zn  Zn13  1  0.58333333  0.50000000  0.01136364  1.0
  Zn  Zn14  1  0.58333333  0.83333333  0.01136364  1.0
  Zn  Zn15  1  0.91666667  0.16666667  0.01136364  1.0
  Zn  Zn16  1  0.91666667  0.50000000  0.01136364  1.0
  Zn  Zn17  1  0.91666667  0.83333333  0.01136364  1.0
  Zn  Zn18  1  0.16666667  0.33333333  0.03409091  1.0
  Zn  Zn19  1  0.16666667  0.66666667  0.03409091  1.0
  Zn  Zn20  1  0.16666667  1.00000000  0.03409091  1.0
  Zn  Zn21  1  0.50000000  0.33333333  0.03409091  1.0
  Zn  Zn22  1  0.50000000  0.66666667  0.03409091  1.0
  Zn  Zn23  1  0.50000000  1.00000000  0.03409091  1.0
  Zn  Zn24  1  0.83333333  0.33333333  0.03409091  1.0
  Zn  Zn25  1  0.83333333  0.66666667  0.03409091  1.0
  Zn  Zn26  1  0.83333333  1.00000000  0.03409091  1.0
  Ni  Ni27  1  0.00000000  0.00000000  0.03409091  1.0
  Ni  Ni28  1  0.00000000  0.33333333  0.03409091  1.0
  Ni  Ni29  1  0.00000000  0.66666667  0.03409091  1.0
  Ni  Ni30  1  0.33333333  0.00000000  0.03409091  1.0
  Ni  Ni31  1  0.33333333  0.33333333  0.03409091  1.0
  Ni  Ni32  1  0.33333333  0.66666667  0.03409091  1.0
  Ni  Ni33  1  0.66666667  0.00000000  0.03409091  1.0
  Ni  Ni34  1  0.66666667  0.33333333  0.03409091  1.0
  Ni  Ni35  1  0.66666667  0.66666667  0.03409091  1.0
  Zn  Zn36  1  0.08333333  0.16666667  0.05681818  1.0
  Zn  Zn37  1  0.08333333  0.50000000  0.05681818  1.0
  Zn  Zn38  1  0.08333333  0.83333333  0.05681818  1.0
  Zn  Zn39  1  0.41666667  0.16666667  0.05681818  1.0
  Zn  Zn40  1  0.41666667  0.50000000  0.05681818  1.0
  Zn  Zn41  1  0.41666667  0.83333333  0.05681818  1.0
  Zn  Zn42  1  0.75000000  0.16666667  0.05681818  1.0
  Zn  Zn43  1  0.75000000  0.50000000  0.05681818  1.0
  Zn  Zn44  1  0.75000000  0.83333333  0.05681818  1.0
  Zn  Zn45  1  0.25000000  0.16666667  0.05681818  1.0
  Zn  Zn46  1  0.25000000  0.50000000  0.05681818  1.0
  Zn  Zn47  1  0.25000000  0.83333333  0.05681818  1.0
  Zn  Zn48  1  0.58333333  0.16666667  0.05681818  1.0
  Zn  Zn49  1  0.58333333  0.50000000  0.05681818  1.0
  Zn  Zn50  1  0.58333333  0.83333333  0.05681818  1.0
  Zn  Zn51  1  0.91666667  0.16666667  0.05681818  1.0
  Zn  Zn52  1  0.91666667  0.50000000  0.05681818  1.0
  Zn  Zn53  1  0.91666667  0.83333333  0.05681818  1.0
  Zn  Zn54  1  0.16666667  0.33333333  0.07954545  1.0
  Zn  Zn55  1  0.16666667  0.66666667  0.07954545  1.0
  Zn  Zn56  1  0.16666667  1.00000000  0.07954545  1.0
  Zn  Zn57  1  0.50000000  0.33333333  0.07954545  1.0
  Zn  Zn58  1  0.50000000  0.66666667  0.07954545  1.0
  Zn  Zn59  1  0.50000000  1.00000000  0.07954545  1.0
  Zn  Zn60  1  0.83333333  0.33333333  0.07954545  1.0
  Zn  Zn61  1  0.83333333  0.66666667  0.07954545  1.0
  Zn  Zn62  1  0.83333333  1.00000000  0.07954545  1.0
  Ni  Ni63  1  0.00000000  0.00000000  0.07954545  1.0
  Ni  Ni64  1  0.00000000  0.33333333  0.07954545  1.0
  Ni  Ni65  1  0.00000000  0.66666667  0.07954545  1.0
  Ni  Ni66  1  0.33333333  0.00000000  0.07954545  1.0
  Ni  Ni67  1  0.33333333  0.33333333  0.07954545  1.0
  Ni  Ni68  1  0.33333333  0.66666667  0.07954545  1.0
  Ni  Ni69  1  0.66666667  0.00000000  0.07954545  1.0
  Ni  Ni70  1  0.66666667  0.33333333  0.07954545  1.0
  Ni  Ni71  1  0.66666667  0.66666667  0.07954545  1.0
  Zn  Zn72  1  0.08333333  0.16666667  0.10227273  1.0
  Zn  Zn73  1  0.08333333  0.50000000  0.10227273  1.0
  Zn  Zn74  1  0.08333333  0.83333333  0.10227273  1.0
  Zn  Zn75  1  0.41666667  0.16666667  0.10227273  1.0
  Zn  Zn76  1  0.41666667  0.50000000  0.10227273  1.0
  Zn  Zn77  1  0.41666667  0.83333333  0.10227273  1.0
  Zn  Zn78  1  0.75000000  0.16666667  0.10227273  1.0
  Zn  Zn79  1  0.75000000  0.50000000  0.10227273  1.0
  Zn  Zn80  1  0.75000000  0.83333333  0.10227273  1.0
  Zn  Zn81  1  0.25000000  0.16666667  0.10227273  1.0
  Zn  Zn82  1  0.25000000  0.50000000  0.10227273  1.0
  Zn  Zn83  1  0.25000000  0.83333333  0.10227273  1.0
  Zn  Zn84  1  0.58333333  0.16666667  0.10227273  1.0
  Zn  Zn85  1  0.58333333  0.50000000  0.10227273  1.0
  Zn  Zn86  1  0.58333333  0.83333333  0.10227273  1.0
  Zn  Zn87  1  0.91666667  0.16666667  0.10227273  1.0
  Zn  Zn88  1  0.91666667  0.50000000  0.10227273  1.0
  Zn  Zn89  1  0.91666667  0.83333333  0.10227273  1.0
  Zn  Zn90  1  0.16666667  0.33333333  0.12500000  1.0
  Zn  Zn91  1  0.16666667  0.66666667  0.12500000  1.0
  Zn  Zn92  1  0.16666667  1.00000000  0.12500000  1.0
  Zn  Zn93  1  0.50000000  0.33333333  0.12500000  1.0
  Zn  Zn94  1  0.50000000  0.66666667  0.12500000  1.0
  Zn  Zn95  1  0.50000000  1.00000000  0.12500000  1.0
  Zn  Zn96  1  0.83333333  0.33333333  0.12500000  1.0
  Zn  Zn97  1  0.83333333  0.66666667  0.12500000  1.0
  Zn  Zn98  1  0.83333333  1.00000000  0.12500000  1.0
  Ni  Ni99  1  0.00000000  0.00000000  0.12500000  1.0
  Ni  Ni100  1  0.00000000  0.33333333  0.12500000  1.0
  Ni  Ni101  1  0.00000000  0.66666667  0.12500000  1.0
  Ni  Ni102  1  0.33333333  0.00000000  0.12500000  1.0
  Ni  Ni103  1  0.33333333  0.33333333  0.12500000  1.0
  Ni  Ni104  1  0.33333333  0.66666667  0.12500000  1.0
  Ni  Ni105  1  0.66666667  0.00000000  0.12500000  1.0
  Ni  Ni106  1  0.66666667  0.33333333  0.12500000  1.0
  Ni  Ni107  1  0.66666667  0.66666667  0.12500000  1.0
  Zn  Zn108  1  0.08333333  0.16666667  0.14772727  1.0
  Zn  Zn109  1  0.08333333  0.50000000  0.14772727  1.0
  Zn  Zn110  1  0.08333333  0.83333333  0.14772727  1.0
  Zn  Zn111  1  0.41666667  0.16666667  0.14772727  1.0
  Zn  Zn112  1  0.41666667  0.50000000  0.14772727  1.0
  Zn  Zn113  1  0.41666667  0.83333333  0.14772727  1.0
  Zn  Zn114  1  0.75000000  0.16666667  0.14772727  1.0
  Zn  Zn115  1  0.75000000  0.50000000  0.14772727  1.0
  Zn  Zn116  1  0.75000000  0.83333333  0.14772727  1.0
  Zn  Zn117  1  0.25000000  0.16666667  0.14772727  1.0
  Zn  Zn118  1  0.25000000  0.50000000  0.14772727  1.0
  Zn  Zn119  1  0.25000000  0.83333333  0.14772727  1.0
  Zn  Zn120  1  0.58333333  0.16666667  0.14772727  1.0
  Zn  Zn121  1  0.58333333  0.50000000  0.14772727  1.0
  Zn  Zn122  1  0.58333333  0.83333333  0.14772727  1.0
  Zn  Zn123  1  0.91666667  0.16666667  0.14772727  1.0
  Zn  Zn124  1  0.91666667  0.50000000  0.14772727  1.0
  Zn  Zn125  1  0.91666667  0.83333333  0.14772727  1.0
  Zn  Zn126  1  0.16666667  0.33333333  0.17045455  1.0
  Zn  Zn127  1  0.16666667  0.66666667  0.17045455  1.0
  Zn  Zn128  1  0.16666667  1.00000000  0.17045455  1.0
  Zn  Zn129  1  0.50000000  0.33333333  0.17045455  1.0
  Zn  Zn130  1  0.50000000  0.66666667  0.17045455  1.0
  Zn  Zn131  1  0.50000000  1.00000000  0.17045455  1.0
  Zn  Zn132  1  0.83333333  0.33333333  0.17045455  1.0
  Zn  Zn133  1  0.83333333  0.66666667  0.17045455  1.0
  Zn  Zn134  1  0.83333333  1.00000000  0.17045455  1.0
  Ni  Ni135  1  0.00000000  0.00000000  0.17045455  1.0
  Ni  Ni136  1  0.00000000  0.33333333  0.17045455  1.0
  Ni  Ni137  1  0.00000000  0.66666667  0.17045455  1.0
  Ni  Ni138  1  0.33333333  0.00000000  0.17045455  1.0
  Ni  Ni139  1  0.33333333  0.33333333  0.17045455  1.0
  Ni  Ni140  1  0.33333333  0.66666667  0.17045455  1.0
  Ni  Ni141  1  0.66666667  0.00000000  0.17045455  1.0
  Ni  Ni142  1  0.66666667  0.33333333  0.17045455  1.0
  Ni  Ni143  1  0.66666667  0.66666667  0.17045455  1.0
  Zn  Zn144  1  0.08333333  0.16666667  0.19318182  1.0
  Zn  Zn145  1  0.08333333  0.50000000  0.19318182  1.0
  Zn  Zn146  1  0.08333333  0.83333333  0.19318182  1.0
  Zn  Zn147  1  0.41666667  0.16666667  0.19318182  1.0
  Zn  Zn148  1  0.41666667  0.50000000  0.19318182  1.0
  Zn  Zn149  1  0.41666667  0.83333333  0.19318182  1.0
  Zn  Zn150  1  0.75000000  0.16666667  0.19318182  1.0
  Zn  Zn151  1  0.75000000  0.50000000  0.19318182  1.0
  Zn  Zn152  1  0.75000000  0.83333333  0.19318182  1.0
  Zn  Zn153  1  0.25000000  0.16666667  0.19318182  1.0
  Zn  Zn154  1  0.25000000  0.50000000  0.19318182  1.0
  Zn  Zn155  1  0.25000000  0.83333333  0.19318182  1.0
  Zn  Zn156  1  0.58333333  0.16666667  0.19318182  1.0
  Zn  Zn157  1  0.58333333  0.50000000  0.19318182  1.0
  Zn  Zn158  1  0.58333333  0.83333333  0.19318182  1.0
  Zn  Zn159  1  0.91666667  0.16666667  0.19318182  1.0
  Zn  Zn160  1  0.91666667  0.50000000  0.19318182  1.0
  Zn  Zn161  1  0.91666667  0.83333333  0.19318182  1.0
  Zn  Zn162  1  0.16666667  0.33333333  0.21590909  1.0
  Zn  Zn163  1  0.16666667  0.66666667  0.21590909  1.0
  Zn  Zn164  1  0.16666667  1.00000000  0.21590909  1.0
  Zn  Zn165  1  0.50000000  0.33333333  0.21590909  1.0
  Zn  Zn166  1  0.50000000  0.66666667  0.21590909  1.0
  Zn  Zn167  1  0.50000000  1.00000000  0.21590909  1.0
  Zn  Zn168  1  0.83333333  0.33333333  0.21590909  1.0
  Zn  Zn169  1  0.83333333  0.66666667  0.21590909  1.0
  Zn  Zn170  1  0.83333333  1.00000000  0.21590909  1.0
  Ni  Ni171  1  0.00000000  0.00000000  0.21590909  1.0
  Ni  Ni172  1  0.00000000  0.33333333  0.21590909  1.0
  Ni  Ni173  1  0.00000000  0.66666667  0.21590909  1.0
  Ni  Ni174  1  0.33333333  0.00000000  0.21590909  1.0
  Ni  Ni175  1  0.33333333  0.33333333  0.21590909  1.0
  Ni  Ni176  1  0.33333333  0.66666667  0.21590909  1.0
  Ni  Ni177  1  0.66666667  0.00000000  0.21590909  1.0
  Ni  Ni178  1  0.66666667  0.33333333  0.21590909  1.0
  Ni  Ni179  1  0.66666667  0.66666667  0.21590909  1.0
  Zn  Zn180  1  0.08333333  0.16666667  0.23863636  1.0
  Zn  Zn181  1  0.08333333  0.50000000  0.23863636  1.0
  Zn  Zn182  1  0.08333333  0.83333333  0.23863636  1.0
  Zn  Zn183  1  0.41666667  0.16666667  0.23863636  1.0
  Zn  Zn184  1  0.41666667  0.50000000  0.23863636  1.0
  Zn  Zn185  1  0.41666667  0.83333333  0.23863636  1.0
  Zn  Zn186  1  0.75000000  0.16666667  0.23863636  1.0
  Zn  Zn187  1  0.75000000  0.50000000  0.23863636  1.0
  Zn  Zn188  1  0.75000000  0.83333333  0.23863636  1.0
  Zn  Zn189  1  0.25000000  0.16666667  0.23863636  1.0
  Zn  Zn190  1  0.25000000  0.50000000  0.23863636  1.0
  Zn  Zn191  1  0.25000000  0.83333333  0.23863636  1.0
  Zn  Zn192  1  0.58333333  0.16666667  0.23863636  1.0
  Zn  Zn193  1  0.58333333  0.50000000  0.23863636  1.0
  Zn  Zn194  1  0.58333333  0.83333333  0.23863636  1.0
  Zn  Zn195  1  0.91666667  0.16666667  0.23863636  1.0
  Zn  Zn196  1  0.91666667  0.50000000  0.23863636  1.0
  Zn  Zn197  1  0.91666667  0.83333333  0.23863636  1.0
  Zn  Zn198  1  0.16666667  0.33333333  0.26136364  1.0
  Zn  Zn199  1  0.16666667  0.66666667  0.26136364  1.0
  Zn  Zn200  1  0.16666667  1.00000000  0.26136364  1.0
  Zn  Zn201  1  0.50000000  0.33333333  0.26136364  1.0
  Zn  Zn202  1  0.50000000  0.66666667  0.26136364  1.0
  Zn  Zn203  1  0.50000000  1.00000000  0.26136364  1.0
  Zn  Zn204  1  0.83333333  0.33333333  0.26136364  1.0
  Zn  Zn205  1  0.83333333  0.66666667  0.26136364  1.0
  Zn  Zn206  1  0.83333333  1.00000000  0.26136364  1.0
  Ni  Ni207  1  0.00000000  0.00000000  0.26136364  1.0
  Ni  Ni208  1  0.00000000  0.33333333  0.26136364  1.0
  Ni  Ni209  1  0.00000000  0.66666667  0.26136364  1.0
  Ni  Ni210  1  0.33333333  0.00000000  0.26136364  1.0
  Ni  Ni211  1  0.33333333  0.33333333  0.26136364  1.0
  Ni  Ni212  1  0.33333333  0.66666667  0.26136364  1.0
  Ni  Ni213  1  0.66666667  0.00000000  0.26136364  1.0
  Ni  Ni214  1  0.66666667  0.33333333  0.26136364  1.0
  Ni  Ni215  1  0.66666667  0.66666667  0.26136364  1.0
  Zn  Zn216  1  0.08333333  0.16666667  0.28409091  1.0
  Zn  Zn217  1  0.08333333  0.50000000  0.28409091  1.0
  Zn  Zn218  1  0.08333333  0.83333333  0.28409091  1.0
  Zn  Zn219  1  0.41666667  0.16666667  0.28409091  1.0
  Zn  Zn220  1  0.41666667  0.50000000  0.28409091  1.0
  Zn  Zn221  1  0.41666667  0.83333333  0.28409091  1.0
  Zn  Zn222  1  0.75000000  0.16666667  0.28409091  1.0
  Zn  Zn223  1  0.75000000  0.50000000  0.28409091  1.0
  Zn  Zn224  1  0.75000000  0.83333333  0.28409091  1.0
  Zn  Zn225  1  0.25000000  0.16666667  0.28409091  1.0
  Zn  Zn226  1  0.25000000  0.50000000  0.28409091  1.0
  Zn  Zn227  1  0.25000000  0.83333333  0.28409091  1.0
  Zn  Zn228  1  0.58333333  0.16666667  0.28409091  1.0
  Zn  Zn229  1  0.58333333  0.50000000  0.28409091  1.0
  Zn  Zn230  1  0.58333333  0.83333333  0.28409091  1.0
  Zn  Zn231  1  0.91666667  0.16666667  0.28409091  1.0
  Zn  Zn232  1  0.91666667  0.50000000  0.28409091  1.0
  Zn  Zn233  1  0.91666667  0.83333333  0.28409091  1.0
  Zn  Zn234  1  0.16666667  0.33333333  0.30681818  1.0
  Zn  Zn235  1  0.16666667  0.66666667  0.30681818  1.0
  Zn  Zn236  1  0.16666667  1.00000000  0.30681818  1.0
  Zn  Zn237  1  0.50000000  0.33333333  0.30681818  1.0
  Zn  Zn238  1  0.50000000  0.66666667  0.30681818  1.0
  Zn  Zn239  1  0.50000000  1.00000000  0.30681818  1.0
  Zn  Zn240  1  0.83333333  0.33333333  0.30681818  1.0
  Zn  Zn241  1  0.83333333  0.66666667  0.30681818  1.0
  Zn  Zn242  1  0.83333333  1.00000000  0.30681818  1.0
  Ni  Ni243  1  0.00000000  0.00000000  0.30681818  1.0
  Ni  Ni244  1  0.00000000  0.33333333  0.30681818  1.0
  Ni  Ni245  1  0.00000000  0.66666667  0.30681818  1.0
  Ni  Ni246  1  0.33333333  0.00000000  0.30681818  1.0
  Ni  Ni247  1  0.33333333  0.33333333  0.30681818  1.0
  Ni  Ni248  1  0.33333333  0.66666667  0.30681818  1.0
  Ni  Ni249  1  0.66666667  0.00000000  0.30681818  1.0
  Ni  Ni250  1  0.66666667  0.33333333  0.30681818  1.0
  Ni  Ni251  1  0.66666667  0.66666667  0.30681818  1.0
  Zn  Zn252  1  0.08333333  0.16666667  0.32954545  1.0
  Zn  Zn253  1  0.08333333  0.50000000  0.32954545  1.0
  Zn  Zn254  1  0.08333333  0.83333333  0.32954545  1.0
  Zn  Zn255  1  0.41666667  0.16666667  0.32954545  1.0
  Zn  Zn256  1  0.41666667  0.50000000  0.32954545  1.0
  Zn  Zn257  1  0.41666667  0.83333333  0.32954545  1.0
  Zn  Zn258  1  0.75000000  0.16666667  0.32954545  1.0
  Zn  Zn259  1  0.75000000  0.50000000  0.32954545  1.0
  Zn  Zn260  1  0.75000000  0.83333333  0.32954545  1.0
  Zn  Zn261  1  0.25000000  0.16666667  0.32954545  1.0
  Zn  Zn262  1  0.25000000  0.50000000  0.32954545  1.0
  Zn  Zn263  1  0.25000000  0.83333333  0.32954545  1.0
  Zn  Zn264  1  0.58333333  0.16666667  0.32954545  1.0
  Zn  Zn265  1  0.58333333  0.50000000  0.32954545  1.0
  Zn  Zn266  1  0.58333333  0.83333333  0.32954545  1.0
  Zn  Zn267  1  0.91666667  0.16666667  0.32954545  1.0
  Zn  Zn268  1  0.91666667  0.50000000  0.32954545  1.0
  Zn  Zn269  1  0.91666667  0.83333333  0.32954545  1.0
  Zn  Zn270  1  0.16666667  0.33333333  0.35227273  1.0
  Zn  Zn271  1  0.16666667  0.66666667  0.35227273  1.0
  Zn  Zn272  1  0.16666667  1.00000000  0.35227273  1.0
  Zn  Zn273  1  0.50000000  0.33333333  0.35227273  1.0
  Zn  Zn274  1  0.50000000  0.66666667  0.35227273  1.0
  Zn  Zn275  1  0.50000000  1.00000000  0.35227273  1.0
  Zn  Zn276  1  0.83333333  0.33333333  0.35227273  1.0
  Zn  Zn277  1  0.83333333  0.66666667  0.35227273  1.0
  Zn  Zn278  1  0.83333333  1.00000000  0.35227273  1.0
  Ni  Ni279  1  0.00000000  0.00000000  0.35227273  1.0
  Ni  Ni280  1  0.00000000  0.33333333  0.35227273  1.0
  Ni  Ni281  1  0.00000000  0.66666667  0.35227273  1.0
  Ni  Ni282  1  0.33333333  0.00000000  0.35227273  1.0
  Ni  Ni283  1  0.33333333  0.33333333  0.35227273  1.0
  Ni  Ni284  1  0.33333333  0.66666667  0.35227273  1.0
  Ni  Ni285  1  0.66666667  0.00000000  0.35227273  1.0
  Ni  Ni286  1  0.66666667  0.33333333  0.35227273  1.0
  Ni  Ni287  1  0.66666667  0.66666667  0.35227273  1.0
  Zn  Zn288  1  0.08333333  0.16666667  0.37500000  1.0
  Zn  Zn289  1  0.08333333  0.50000000  0.37500000  1.0
  Zn  Zn290  1  0.08333333  0.83333333  0.37500000  1.0
  Zn  Zn291  1  0.41666667  0.16666667  0.37500000  1.0
  Zn  Zn292  1  0.41666667  0.50000000  0.37500000  1.0
  Zn  Zn293  1  0.41666667  0.83333333  0.37500000  1.0
  Zn  Zn294  1  0.75000000  0.16666667  0.37500000  1.0
  Zn  Zn295  1  0.75000000  0.50000000  0.37500000  1.0
  Zn  Zn296  1  0.75000000  0.83333333  0.37500000  1.0
  Zn  Zn297  1  0.25000000  0.16666667  0.37500000  1.0
  Zn  Zn298  1  0.25000000  0.50000000  0.37500000  1.0
  Zn  Zn299  1  0.25000000  0.83333333  0.37500000  1.0
  Zn  Zn300  1  0.58333333  0.16666667  0.37500000  1.0
  Zn  Zn301  1  0.58333333  0.50000000  0.37500000  1.0
  Zn  Zn302  1  0.58333333  0.83333333  0.37500000  1.0
  Zn  Zn303  1  0.91666667  0.16666667  0.37500000  1.0
  Zn  Zn304  1  0.91666667  0.50000000  0.37500000  1.0
  Zn  Zn305  1  0.91666667  0.83333333  0.37500000  1.0
  Zn  Zn306  1  0.16666667  0.33333333  0.39772727  1.0
  Zn  Zn307  1  0.16666667  0.66666667  0.39772727  1.0
  Zn  Zn308  1  0.16666667  1.00000000  0.39772727  1.0
  Zn  Zn309  1  0.50000000  0.33333333  0.39772727  1.0
  Zn  Zn310  1  0.50000000  0.66666667  0.39772727  1.0
  Zn  Zn311  1  0.50000000  1.00000000  0.39772727  1.0
  Zn  Zn312  1  0.83333333  0.33333333  0.39772727  1.0
  Zn  Zn313  1  0.83333333  0.66666667  0.39772727  1.0
  Zn  Zn314  1  0.83333333  1.00000000  0.39772727  1.0
  Ni  Ni315  1  0.00000000  0.00000000  0.39772727  1.0
  Ni  Ni316  1  0.00000000  0.33333333  0.39772727  1.0
  Ni  Ni317  1  0.00000000  0.66666667  0.39772727  1.0
  Ni  Ni318  1  0.33333333  0.00000000  0.39772727  1.0
  Ni  Ni319  1  0.33333333  0.33333333  0.39772727  1.0
  Ni  Ni320  1  0.33333333  0.66666667  0.39772727  1.0
  Ni  Ni321  1  0.66666667  0.00000000  0.39772727  1.0
  Ni  Ni322  1  0.66666667  0.33333333  0.39772727  1.0
  Ni  Ni323  1  0.66666667  0.66666667  0.39772727  1.0
