# generated using pymatgen
data_Zn3Ni
_symmetry_space_group_name_H-M   'P 1'
_cell_length_a   23.68130998
_cell_length_b   26.09880587
_cell_length_c   70.77653625
_cell_angle_alpha   157.20153321
_cell_angle_beta   146.77043605
_cell_angle_gamma   24.85541123
_symmetry_Int_Tables_number   1
_chemical_formula_structural   Zn3Ni
_chemical_formula_sum   'Zn162 Ni54'
_cell_volume   7124.71306685
_cell_formula_units_Z   54
loop_
 _symmetry_equiv_pos_site_id
 _symmetry_equiv_pos_as_xyz
  1  'x, y, z'
loop_
 _atom_site_type_symbol
 _atom_site_label
 _atom_site_symmetry_multiplicity
 _atom_site_fract_x
 _atom_site_fract_y
 _atom_site_fract_z
 _atom_site_occupancy
  Zn  Zn0  1  0.25000000  0.16666667  0.03333333  1.0
  Zn  Zn1  1  0.25000000  0.50000000  0.03333333  1.0
  Zn  Zn2  1  0.25000000  0.83333333  0.03333333  1.0
  Zn  Zn3  1  0.58333333  0.16666667  0.03333333  1.0
  Zn  Zn4  1  0.58333333  0.50000000  0.03333333  1.0
  Zn  Zn5  1  0.58333333  0.83333333  0.03333333  1.0
  Zn  Zn6  1  0.91666667  0.16666667  0.03333333  1.0
  Zn  Zn7  1  0.91666667  0.50000000  0.03333333  1.0
  Zn  Zn8  1  0.91666667  0.83333333  0.03333333  1.0
  Zn  Zn9  1  0.08333333  0.16666667  0.03333333  1.0
  Zn  Zn10  1  0.08333333  0.50000000  0.03333333  1.0
  Zn  Zn11  1  0.08333333  0.83333333  0.03333333  1.0
  Zn  Zn12  1  0.41666667  0.16666667  0.03333333  1.0
  Zn  Zn13  1  0.41666667  0.50000000  0.03333333  1.0
  Zn  Zn14  1  0.41666667  0.83333333  0.03333333  1.0
  Zn  Zn15  1  0.75000000  0.16666667  0.03333333  1.0
  Zn  Zn16  1  0.75000000  0.50000000  0.03333333  1.0
  Zn  Zn17  1  0.75000000  0.83333333  0.03333333  1.0
  Zn  Zn18  1  0.16666667  0.00000000  0.03333333  1.0
  Zn  Zn19  1  0.16666667  0.33333333  0.03333333  1.0
  Zn  Zn20  1  0.16666667  0.66666667  0.03333333  1.0
  Zn  Zn21  1  0.50000000  0.00000000  0.03333333  1.0
  Zn  Zn22  1  0.50000000  0.33333333  0.03333333  1.0
  Zn  Zn23  1  0.50000000  0.66666667  0.03333333  1.0
  Zn  Zn24  1  0.83333333  0.00000000  0.03333333  1.0
  Zn  Zn25  1  0.83333333  0.33333333  0.03333333  1.0
  Zn  Zn26  1  0.83333333  0.66666667  0.03333333  1.0
  Ni  Ni27  1  0.00000000  0.00000000  0.03333333  1.0
  Ni  Ni28  1  0.00000000  0.33333333  0.03333333  1.0
  Ni  Ni29  1  0.00000000  0.66666667  0.03333333  1.0
  Ni  Ni30  1  0.33333333  0.00000000  0.03333333  1.0
  Ni  Ni31  1  0.33333333  0.33333333  0.03333333  1.0
  Ni  Ni32  1  0.33333333  0.66666667  0.03333333  1.0
  Ni  Ni33  1  0.66666667  0.00000000  0.03333333  1.0
  Ni  Ni34  1  0.66666667  0.33333333  0.03333333  1.0
  Ni  Ni35  1  0.66666667  0.66666667  0.03333333  1.0
  Zn  Zn36  1  0.25000000  0.16666667  0.10000000  1.0
  Zn  Zn37  1  0.25000000  0.50000000  0.10000000  1.0
  Zn  Zn38  1  0.25000000  0.83333333  0.10000000  1.0
  Zn  Zn39  1  0.58333333  0.16666667  0.10000000  1.0
  Zn  Zn40  1  0.58333333  0.50000000  0.10000000  1.0
  Zn  Zn41  1  0.58333333  0.83333333  0.10000000  1.0
  Zn  Zn42  1  0.91666667  0.16666667  0.10000000  1.0
  Zn  Zn43  1  0.91666667  0.50000000  0.10000000  1.0
  Zn  Zn44  1  0.91666667  0.83333333  0.10000000  1.0
  Zn  Zn45  1  0.08333333  0.16666667  0.10000000  1.0
  Zn  Zn46  1  0.08333333  0.50000000  0.10000000  1.0
  Zn  Zn47  1  0.08333333  0.83333333  0.10000000  1.0
  Zn  Zn48  1  0.41666667  0.16666667  0.10000000  1.0
  Zn  Zn49  1  0.41666667  0.50000000  0.10000000  1.0
  Zn  Zn50  1  0.41666667  0.83333333  0.10000000  1.0
  Zn  Zn51  1  0.75000000  0.16666667  0.10000000  1.0
  Zn  Zn52  1  0.75000000  0.50000000  0.10000000  1.0
  Zn  Zn53  1  0.75000000  0.83333333  0.10000000  1.0
  Zn  Zn54  1  0.16666667  0.00000000  0.10000000  1.0
  Zn  Zn55  1  0.16666667  0.33333333  0.10000000  1.0
  Zn  Zn56  1  0.16666667  0.66666667  0.10000000  1.0
  Zn  Zn57  1  0.50000000  0.00000000  0.10000000  1.0
  Zn  Zn58  1  0.50000000  0.33333333  0.10000000  1.0
  Zn  Zn59  1  0.50000000  0.66666667  0.10000000  1.0
  Zn  Zn60  1  0.83333333  0.00000000  0.10000000  1.0
  Zn  Zn61  1  0.83333333  0.33333333  0.10000000  1.0
  Zn  Zn62  1  0.83333333  0.66666667  0.10000000  1.0
  Ni  Ni63  1  0.00000000  0.00000000  0.10000000  1.0
  Ni  Ni64  1  0.00000000  0.33333333  0.10000000  1.0
  Ni  Ni65  1  0.00000000  0.66666667  0.10000000  1.0
  Ni  Ni66  1  0.33333333  0.00000000  0.10000000  1.0
  Ni  Ni67  1  0.33333333  0.33333333  0.10000000  1.0
  Ni  Ni68  1  0.33333333  0.66666667  0.10000000  1.0
  Ni  Ni69  1  0.66666667  0.00000000  0.10000000  1.0
  Ni  Ni70  1  0.66666667  0.33333333  0.10000000  1.0
  Ni  Ni71  1  0.66666667  0.66666667  0.10000000  1.0
  Zn  Zn72  1  0.25000000  0.16666667  0.16666667  1.0
  Zn  Zn73  1  0.25000000  0.50000000  0.16666667  1.0
  Zn  Zn74  1  0.25000000  0.83333333  0.16666667  1.0
  Zn  Zn75  1  0.58333333  0.16666667  0.16666667  1.0
  Zn  Zn76  1  0.58333333  0.50000000  0.16666667  1.0
  Zn  Zn77  1  0.58333333  0.83333333  0.16666667  1.0
  Zn  Zn78  1  0.91666667  0.16666667  0.16666667  1.0
  Zn  Zn79  1  0.91666667  0.50000000  0.16666667  1.0
  Zn  Zn80  1  0.91666667  0.83333333  0.16666667  1.0
  Zn  Zn81  1  0.08333333  0.16666667  0.16666667  1.0
  Zn  Zn82  1  0.08333333  0.50000000  0.16666667  1.0
  Zn  Zn83  1  0.08333333  0.83333333  0.16666667  1.0
  Zn  Zn84  1  0.41666667  0.16666667  0.16666667  1.0
  Zn  Zn85  1  0.41666667  0.50000000  0.16666667  1.0
  Zn  Zn86  1  0.41666667  0.83333333  0.16666667  1.0
  Zn  Zn87  1  0.75000000  0.16666667  0.16666667  1.0
  Zn  Zn88  1  0.75000000  0.50000000  0.16666667  1.0
  Zn  Zn89  1  0.75000000  0.83333333  0.16666667  1.0
  Zn  Zn90  1  0.16666667  0.00000000  0.16666667  1.0
  Zn  Zn91  1  0.16666667  0.33333333  0.16666667  1.0
  Zn  Zn92  1  0.16666667  0.66666667  0.16666667  1.0
  Zn  Zn93  1  0.50000000  0.00000000  0.16666667  1.0
  Zn  Zn94  1  0.50000000  0.33333333  0.16666667  1.0
  Zn  Zn95  1  0.50000000  0.66666667  0.16666667  1.0
  Zn  Zn96  1  0.83333333  0.00000000  0.16666667  1.0
  Zn  Zn97  1  0.83333333  0.33333333  0.16666667  1.0
  Zn  Zn98  1  0.83333333  0.66666667  0.16666667  1.0
  Ni  Ni99  1  0.00000000  0.00000000  0.16666667  1.0
  Ni  Ni100  1  0.00000000  0.33333333  0.16666667  1.0
  Ni  Ni101  1  0.00000000  0.66666667  0.16666667  1.0
  Ni  Ni102  1  0.33333333  0.00000000  0.16666667  1.0
  Ni  Ni103  1  0.33333333  0.33333333  0.16666667  1.0
  Ni  Ni104  1  0.33333333  0.66666667  0.16666667  1.0
  Ni  Ni105  1  0.66666667  0.00000000  0.16666667  1.0
  Ni  Ni106  1  0.66666667  0.33333333  0.16666667  1.0
  Ni  Ni107  1  0.66666667  0.66666667  0.16666667  1.0
  Zn  Zn108  1  0.25000000  0.16666667  0.23333333  1.0
  Zn  Zn109  1  0.25000000  0.50000000  0.23333333  1.0
  Zn  Zn110  1  0.25000000  0.83333333  0.23333333  1.0
  Zn  Zn111  1  0.58333333  0.16666667  0.23333333  1.0
  Zn  Zn112  1  0.58333333  0.50000000  0.23333333  1.0
  Zn  Zn113  1  0.58333333  0.83333333  0.23333333  1.0
  Zn  Zn114  1  0.91666667  0.16666667  0.23333333  1.0
  Zn  Zn115  1  0.91666667  0.50000000  0.23333333  1.0
  Zn  Zn116  1  0.91666667  0.83333333  0.23333333  1.0
  Zn  Zn117  1  0.08333333  0.16666667  0.23333333  1.0
  Zn  Zn118  1  0.08333333  0.50000000  0.23333333  1.0
  Zn  Zn119  1  0.08333333  0.83333333  0.23333333  1.0
  Zn  Zn120  1  0.41666667  0.16666667  0.23333333  1.0
  Zn  Zn121  1  0.41666667  0.50000000  0.23333333  1.0
  Zn  Zn122  1  0.41666667  0.83333333  0.23333333  1.0
  Zn  Zn123  1  0.75000000  0.16666667  0.23333333  1.0
  Zn  Zn124  1  0.75000000  0.50000000  0.23333333  1.0
  Zn  Zn125  1  0.75000000  0.83333333  0.23333333  1.0
  Zn  Zn126  1  0.16666667  0.00000000  0.23333333  1.0
  Zn  Zn127  1  0.16666667  0.33333333  0.23333333  1.0
  Zn  Zn128  1  0.16666667  0.66666667  0.23333333  1.0
  Zn  Zn129  1  0.50000000  0.00000000  0.23333333  1.0
  Zn  Zn130  1  0.50000000  0.33333333  0.23333333  1.0
  Zn  Zn131  1  0.50000000  0.66666667  0.23333333  1.0
  Zn  Zn132  1  0.83333333  0.00000000  0.23333333  1.0
  Zn  Zn133  1  0.83333333  0.33333333  0.23333333  1.0
  Zn  Zn134  1  0.83333333  0.66666667  0.23333333  1.0
  Ni  Ni135  1  0.00000000  0.00000000  0.23333333  1.0
  Ni  Ni136  1  0.00000000  0.33333333  0.23333333  1.0
  Ni  Ni137  1  0.00000000  0.66666667  0.23333333  1.0
  Ni  Ni138  1  0.33333333  0.00000000  0.23333333  1.0
  Ni  Ni139  1  0.33333333  0.33333333  0.23333333  1.0
  Ni  Ni140  1  0.33333333  0.66666667  0.23333333  1.0
  Ni  Ni141  1  0.66666667  0.00000000  0.23333333  1.0
  Ni  Ni142  1  0.66666667  0.33333333  0.23333333  1.0
  Ni  Ni143  1  0.66666667  0.66666667  0.23333333  1.0
  Zn  Zn144  1  0.25000000  0.16666667  0.30000000  1.0
  Zn  Zn145  1  0.25000000  0.50000000  0.30000000  1.0
  Zn  Zn146  1  0.25000000  0.83333333  0.30000000  1.0
  Zn  Zn147  1  0.58333333  0.16666667  0.30000000  1.0
  Zn  Zn148  1  0.58333333  0.50000000  0.30000000  1.0
  Zn  Zn149  1  0.58333333  0.83333333  0.30000000  1.0
  Zn  Zn150  1  0.91666667  0.16666667  0.30000000  1.0
  Zn  Zn151  1  0.91666667  0.50000000  0.30000000  1.0
  Zn  Zn152  1  0.91666667  0.83333333  0.30000000  1.0
  Zn  Zn153  1  0.08333333  0.16666667  0.30000000  1.0
  Zn  Zn154  1  0.08333333  0.50000000  0.30000000  1.0
  Zn  Zn155  1  0.08333333  0.83333333  0.30000000  1.0
  Zn  Zn156  1  0.41666667  0.16666667  0.30000000  1.0
  Zn  Zn157  1  0.41666667  0.50000000  0.30000000  1.0
  Zn  Zn158  1  0.41666667  0.83333333  0.30000000  1.0
  Zn  Zn159  1  0.75000000  0.16666667  0.30000000  1.0
  Zn  Zn160  1  0.75000000  0.50000000  0.30000000  1.0
  Zn  Zn161  1  0.75000000  0.83333333  0.30000000  1.0
  Zn  Zn162  1  0.16666667  0.00000000  0.30000000  1.0
  Zn  Zn163  1  0.16666667  0.33333333  0.30000000  1.0
  Zn  Zn164  1  0.16666667  0.66666667  0.30000000  1.0
  Zn  Zn165  1  0.50000000  0.00000000  0.30000000  1.0
  Zn  Zn166  1  0.50000000  0.33333333  0.30000000  1.0
  Zn  Zn167  1  0.50000000  0.66666667  0.30000000  1.0
  Zn  Zn168  1  0.83333333  0.00000000  0.30000000  1.0
  Zn  Zn169  1  0.83333333  0.33333333  0.30000000  1.0
  Zn  Zn170  1  0.83333333  0.66666667  0.30000000  1.0
  Ni  Ni171  1  0.00000000  0.00000000  0.30000000  1.0
  Ni  Ni172  1  0.00000000  0.33333333  0.30000000  1.0
  Ni  Ni173  1  0.00000000  0.66666667  0.30000000  1.0
  Ni  Ni174  1  0.33333333  0.00000000  0.30000000  1.0
  Ni  Ni175  1  0.33333333  0.33333333  0.30000000  1.0
  Ni  Ni176  1  0.33333333  0.66666667  0.30000000  1.0
  Ni  Ni177  1  0.66666667  0.00000000  0.30000000  1.0
  Ni  Ni178  1  0.66666667  0.33333333  0.30000000  1.0
  Ni  Ni179  1  0.66666667  0.66666667  0.30000000  1.0
  Zn  Zn180  1  0.25000000  0.16666667  0.36666667  1.0
  Zn  Zn181  1  0.25000000  0.50000000  0.36666667  1.0
  Zn  Zn182  1  0.25000000  0.83333333  0.36666667  1.0
  Zn  Zn183  1  0.58333333  0.16666667  0.36666667  1.0
  Zn  Zn184  1  0.58333333  0.50000000  0.36666667  1.0
  Zn  Zn185  1  0.58333333  0.83333333  0.36666667  1.0
  Zn  Zn186  1  0.91666667  0.16666667  0.36666667  1.0
  Zn  Zn187  1  0.91666667  0.50000000  0.36666667  1.0
  Zn  Zn188  1  0.91666667  0.83333333  0.36666667  1.0
  Zn  Zn189  1  0.08333333  0.16666667  0.36666667  1.0
  Zn  Zn190  1  0.08333333  0.50000000  0.36666667  1.0
  Zn  Zn191  1  0.08333333  0.83333333  0.36666667  1.0
  Zn  Zn192  1  0.41666667  0.16666667  0.36666667  1.0
  Zn  Zn193  1  0.41666667  0.50000000  0.36666667  1.0
  Zn  Zn194  1  0.41666667  0.83333333  0.36666667  1.0
  Zn  Zn195  1  0.75000000  0.16666667  0.36666667  1.0
  Zn  Zn196  1  0.75000000  0.50000000  0.36666667  1.0
  Zn  Zn197  1  0.75000000  0.83333333  0.36666667  1.0
  Zn  Zn198  1  0.16666667  0.00000000  0.36666667  1.0
  Zn  Zn199  1  0.16666667  0.33333333  0.36666667  1.0
  Zn  Zn200  1  0.16666667  0.66666667  0.36666667  1.0
  Zn  Zn201  1  0.50000000  0.00000000  0.36666667  1.0
  Zn  Zn202  1  0.50000000  0.33333333  0.36666667  1.0
  Zn  Zn203  1  0.50000000  0.66666667  0.36666667  1.0
  Zn  Zn204  1  0.83333333  0.00000000  0.36666667  1.0
  Zn  Zn205  1  0.83333333  0.33333333  0.36666667  1.0
  Zn  Zn206  1  0.83333333  0.66666667  0.36666667  1.0
  Ni  Ni207  1  0.00000000  0.00000000  0.36666667  1.0
  Ni  Ni208  1  0.00000000  0.33333333  0.36666667  1.0
  Ni  Ni209  1  0.00000000  0.66666667  0.36666667  1.0
  Ni  Ni210  1  0.33333333  0.00000000  0.36666667  1.0
  Ni  Ni211  1  0.33333333  0.33333333  0.36666667  1.0
  Ni  Ni212  1  0.33333333  0.66666667  0.36666667  1.0
  Ni  Ni213  1  0.66666667  0.00000000  0.36666667  1.0
  Ni  Ni214  1  0.66666667  0.33333333  0.36666667  1.0
  Ni  Ni215  1  0.66666667  0.66666667  0.36666667  1.0
