# generated using pymatgen
data_Zn3Ni
_symmetry_space_group_name_H-M   'P 1'
_cell_length_a   21.00140886
_cell_length_b   26.09880587
_cell_length_c   26.61744850
_cell_angle_alpha   85.06397008
_cell_angle_beta   85.90537040
_cell_angle_gamma   66.30932296
_symmetry_Int_Tables_number   1
_chemical_formula_structural   Zn3Ni
_chemical_formula_sum   'Zn324 Ni108'
_cell_volume   13299.46439146
_cell_formula_units_Z   108
loop_
 _symmetry_equiv_pos_site_id
 _symmetry_equiv_pos_as_xyz
  1  'x, y, z'
loop_
 _atom_site_type_symbol
 _atom_site_label
 _atom_site_symmetry_multiplicity
 _atom_site_fract_x
 _atom_site_fract_y
 _atom_site_fract_z
 _atom_site_occupancy
  Ni  Ni0  1  0.15625000  0.04464286  0.06696429  1.0
  Ni  Ni1  1  0.15625000  0.37797619  0.06696429  1.0
  Ni  Ni2  1  0.15625000  0.71130952  0.06696429  1.0
  Ni  Ni3  1  0.48958333  0.04464286  0.06696429  1.0
  Ni  Ni4  1  0.48958333  0.37797619  0.06696429  1.0
  Ni  Ni5  1  0.48958333  0.71130952  0.06696429  1.0
  Ni  Ni6  1  0.82291667  0.04464286  0.06696429  1.0
  Ni  Ni7  1  0.82291667  0.37797619  0.06696429  1.0
  Ni  Ni8  1  0.82291667  0.71130952  0.06696429  1.0
  Ni  Ni9  1  0.23958333  0.18750000  0.03125000  1.0
  Ni  Ni10  1  0.23958333  0.52083333  0.03125000  1.0
  Ni  Ni11  1  0.23958333  0.85416667  0.03125000  1.0
  Ni  Ni12  1  0.57291667  0.18750000  0.03125000  1.0
  Ni  Ni13  1  0.57291667  0.52083333  0.03125000  1.0
  Ni  Ni14  1  0.57291667  0.85416667  0.03125000  1.0
  Ni  Ni15  1  0.90625000  0.18750000  0.03125000  1.0
  Ni  Ni16  1  0.90625000  0.52083333  0.03125000  1.0
  Ni  Ni17  1  0.90625000  0.85416667  0.03125000  1.0
  Ni  Ni18  1  0.32291667  0.09226190  0.13839286  1.0
  Ni  Ni19  1  0.32291667  0.42559524  0.13839286  1.0
  Ni  Ni20  1  0.32291667  0.75892857  0.13839286  1.0
  Ni  Ni21  1  0.65625000  0.09226190  0.13839286  1.0
  Ni  Ni22  1  0.65625000  0.42559524  0.13839286  1.0
  Ni  Ni23  1  0.65625000  0.75892857  0.13839286  1.0
  Ni  Ni24  1  0.98958333  0.09226190  0.13839286  1.0
  Ni  Ni25  1  0.98958333  0.42559524  0.13839286  1.0
  Ni  Ni26  1  0.98958333  0.75892857  0.13839286  1.0
  Ni  Ni27  1  0.07291667  0.23511905  0.10267857  1.0
  Ni  Ni28  1  0.07291667  0.56845238  0.10267857  1.0
  Ni  Ni29  1  0.07291667  0.90178571  0.10267857  1.0
  Ni  Ni30  1  0.40625000  0.23511905  0.10267857  1.0
  Ni  Ni31  1  0.40625000  0.56845238  0.10267857  1.0
  Ni  Ni32  1  0.40625000  0.90178571  0.10267857  1.0
  Ni  Ni33  1  0.73958333  0.23511905  0.10267857  1.0
  Ni  Ni34  1  0.73958333  0.56845238  0.10267857  1.0
  Ni  Ni35  1  0.73958333  0.90178571  0.10267857  1.0
  Ni  Ni36  1  0.15625000  0.13988095  0.20982143  1.0
  Ni  Ni37  1  0.15625000  0.47321429  0.20982143  1.0
  Ni  Ni38  1  0.15625000  0.80654762  0.20982143  1.0
  Ni  Ni39  1  0.48958333  0.13988095  0.20982143  1.0
  Ni  Ni40  1  0.48958333  0.47321429  0.20982143  1.0
  Ni  Ni41  1  0.48958333  0.80654762  0.20982143  1.0
  Ni  Ni42  1  0.82291667  0.13988095  0.20982143  1.0
  Ni  Ni43  1  0.82291667  0.47321429  0.20982143  1.0
  Ni  Ni44  1  0.82291667  0.80654762  0.20982143  1.0
  Ni  Ni45  1  0.23958333  0.28273810  0.17410714  1.0
  Ni  Ni46  1  0.23958333  0.61607143  0.17410714  1.0
  Ni  Ni47  1  0.23958333  0.94940476  0.17410714  1.0
  Ni  Ni48  1  0.57291667  0.28273810  0.17410714  1.0
  Ni  Ni49  1  0.57291667  0.61607143  0.17410714  1.0
  Ni  Ni50  1  0.57291667  0.94940476  0.17410714  1.0
  Ni  Ni51  1  0.90625000  0.28273810  0.17410714  1.0
  Ni  Ni52  1  0.90625000  0.61607143  0.17410714  1.0
  Ni  Ni53  1  0.90625000  0.94940476  0.17410714  1.0
  Ni  Ni54  1  0.32291667  0.18750000  0.28125000  1.0
  Ni  Ni55  1  0.32291667  0.52083333  0.28125000  1.0
  Ni  Ni56  1  0.32291667  0.85416667  0.28125000  1.0
  Ni  Ni57  1  0.65625000  0.18750000  0.28125000  1.0
  Ni  Ni58  1  0.65625000  0.52083333  0.28125000  1.0
  Ni  Ni59  1  0.65625000  0.85416667  0.28125000  1.0
  Ni  Ni60  1  0.98958333  0.18750000  0.28125000  1.0
  Ni  Ni61  1  0.98958333  0.52083333  0.28125000  1.0
  Ni  Ni62  1  0.98958333  0.85416667  0.28125000  1.0
  Ni  Ni63  1  0.07291667  0.33035714  0.24553571  1.0
  Ni  Ni64  1  0.07291667  0.66369048  0.24553571  1.0
  Ni  Ni65  1  0.07291667  0.99702381  0.24553571  1.0
  Ni  Ni66  1  0.40625000  0.33035714  0.24553571  1.0
  Ni  Ni67  1  0.40625000  0.66369048  0.24553571  1.0
  Ni  Ni68  1  0.40625000  0.99702381  0.24553571  1.0
  Ni  Ni69  1  0.73958333  0.33035714  0.24553571  1.0
  Ni  Ni70  1  0.73958333  0.66369048  0.24553571  1.0
  Ni  Ni71  1  0.73958333  0.99702381  0.24553571  1.0
  Ni  Ni72  1  0.15625000  0.23511905  0.35267857  1.0
  Ni  Ni73  1  0.15625000  0.56845238  0.35267857  1.0
  Ni  Ni74  1  0.15625000  0.90178571  0.35267857  1.0
  Ni  Ni75  1  0.48958333  0.23511905  0.35267857  1.0
  Ni  Ni76  1  0.48958333  0.56845238  0.35267857  1.0
  Ni  Ni77  1  0.48958333  0.90178571  0.35267857  1.0
  Ni  Ni78  1  0.82291667  0.23511905  0.35267857  1.0
  Ni  Ni79  1  0.82291667  0.56845238  0.35267857  1.0
  Ni  Ni80  1  0.82291667  0.90178571  0.35267857  1.0
  Ni  Ni81  1  0.23958333  0.04464286  0.31696429  1.0
  Ni  Ni82  1  0.23958333  0.37797619  0.31696429  1.0
  Ni  Ni83  1  0.23958333  0.71130952  0.31696429  1.0
  Ni  Ni84  1  0.57291667  0.04464286  0.31696429  1.0
  Ni  Ni85  1  0.57291667  0.37797619  0.31696429  1.0
  Ni  Ni86  1  0.57291667  0.71130952  0.31696429  1.0
  Ni  Ni87  1  0.90625000  0.04464286  0.31696429  1.0
  Ni  Ni88  1  0.90625000  0.37797619  0.31696429  1.0
  Ni  Ni89  1  0.90625000  0.71130952  0.31696429  1.0
  Ni  Ni90  1  0.32291667  0.28273810  0.42410714  1.0
  Ni  Ni91  1  0.32291667  0.61607143  0.42410714  1.0
  Ni  Ni92  1  0.32291667  0.94940476  0.42410714  1.0
  Ni  Ni93  1  0.65625000  0.28273810  0.42410714  1.0
  Ni  Ni94  1  0.65625000  0.61607143  0.42410714  1.0
  Ni  Ni95  1  0.65625000  0.94940476  0.42410714  1.0
  Ni  Ni96  1  0.98958333  0.28273810  0.42410714  1.0
  Ni  Ni97  1  0.98958333  0.61607143  0.42410714  1.0
  Ni  Ni98  1  0.98958333  0.94940476  0.42410714  1.0
  Ni  Ni99  1  0.07291667  0.09226190  0.38839286  1.0
  Ni  Ni100  1  0.07291667  0.42559524  0.38839286  1.0
  Ni  Ni101  1  0.07291667  0.75892857  0.38839286  1.0
  Ni  Ni102  1  0.40625000  0.09226190  0.38839286  1.0
  Ni  Ni103  1  0.40625000  0.42559524  0.38839286  1.0
  Ni  Ni104  1  0.40625000  0.75892857  0.38839286  1.0
  Ni  Ni105  1  0.73958333  0.09226190  0.38839286  1.0
  Ni  Ni106  1  0.73958333  0.42559524  0.38839286  1.0
  Ni  Ni107  1  0.73958333  0.75892857  0.38839286  1.0
  Zn  Zn108  1  0.21875000  0.29464286  0.00446429  1.0
  Zn  Zn109  1  0.21875000  0.62797619  0.00446429  1.0
  Zn  Zn110  1  0.21875000  0.96130952  0.00446429  1.0
  Zn  Zn111  1  0.55208333  0.29464286  0.00446429  1.0
  Zn  Zn112  1  0.55208333  0.62797619  0.00446429  1.0
  Zn  Zn113  1  0.55208333  0.96130952  0.00446429  1.0
  Zn  Zn114  1  0.88541667  0.29464286  0.00446429  1.0
  Zn  Zn115  1  0.88541667  0.62797619  0.00446429  1.0
  Zn  Zn116  1  0.88541667  0.96130952  0.00446429  1.0
  Zn  Zn117  1  0.13541667  0.15178571  0.04017857  1.0
  Zn  Zn118  1  0.13541667  0.48511905  0.04017857  1.0
  Zn  Zn119  1  0.13541667  0.81845238  0.04017857  1.0
  Zn  Zn120  1  0.46875000  0.15178571  0.04017857  1.0
  Zn  Zn121  1  0.46875000  0.48511905  0.04017857  1.0
  Zn  Zn122  1  0.46875000  0.81845238  0.04017857  1.0
  Zn  Zn123  1  0.80208333  0.15178571  0.04017857  1.0
  Zn  Zn124  1  0.80208333  0.48511905  0.04017857  1.0
  Zn  Zn125  1  0.80208333  0.81845238  0.04017857  1.0
  Zn  Zn126  1  0.26041667  0.08035714  0.05803571  1.0
  Zn  Zn127  1  0.26041667  0.41369048  0.05803571  1.0
  Zn  Zn128  1  0.26041667  0.74702381  0.05803571  1.0
  Zn  Zn129  1  0.59375000  0.08035714  0.05803571  1.0
  Zn  Zn130  1  0.59375000  0.41369048  0.05803571  1.0
  Zn  Zn131  1  0.59375000  0.74702381  0.05803571  1.0
  Zn  Zn132  1  0.92708333  0.08035714  0.05803571  1.0
  Zn  Zn133  1  0.92708333  0.41369048  0.05803571  1.0
  Zn  Zn134  1  0.92708333  0.74702381  0.05803571  1.0
  Zn  Zn135  1  0.01041667  0.22321429  0.02232143  1.0
  Zn  Zn136  1  0.01041667  0.55654762  0.02232143  1.0
  Zn  Zn137  1  0.01041667  0.88988095  0.02232143  1.0
  Zn  Zn138  1  0.34375000  0.22321429  0.02232143  1.0
  Zn  Zn139  1  0.34375000  0.55654762  0.02232143  1.0
  Zn  Zn140  1  0.34375000  0.88988095  0.02232143  1.0
  Zn  Zn141  1  0.67708333  0.22321429  0.02232143  1.0
  Zn  Zn142  1  0.67708333  0.55654762  0.02232143  1.0
  Zn  Zn143  1  0.67708333  0.88988095  0.02232143  1.0
  Zn  Zn144  1  0.03125000  0.11607143  0.04910714  1.0
  Zn  Zn145  1  0.03125000  0.44940476  0.04910714  1.0
  Zn  Zn146  1  0.03125000  0.78273810  0.04910714  1.0
  Zn  Zn147  1  0.36458333  0.11607143  0.04910714  1.0
  Zn  Zn148  1  0.36458333  0.44940476  0.04910714  1.0
  Zn  Zn149  1  0.36458333  0.78273810  0.04910714  1.0
  Zn  Zn150  1  0.69791667  0.11607143  0.04910714  1.0
  Zn  Zn151  1  0.69791667  0.44940476  0.04910714  1.0
  Zn  Zn152  1  0.69791667  0.78273810  0.04910714  1.0
  Zn  Zn153  1  0.11458333  0.25892857  0.01339286  1.0
  Zn  Zn154  1  0.11458333  0.59226190  0.01339286  1.0
  Zn  Zn155  1  0.11458333  0.92559524  0.01339286  1.0
  Zn  Zn156  1  0.44791667  0.25892857  0.01339286  1.0
  Zn  Zn157  1  0.44791667  0.59226190  0.01339286  1.0
  Zn  Zn158  1  0.44791667  0.92559524  0.01339286  1.0
  Zn  Zn159  1  0.78125000  0.25892857  0.01339286  1.0
  Zn  Zn160  1  0.78125000  0.59226190  0.01339286  1.0
  Zn  Zn161  1  0.78125000  0.92559524  0.01339286  1.0
  Zn  Zn162  1  0.05208333  0.00892857  0.07589286  1.0
  Zn  Zn163  1  0.05208333  0.34226190  0.07589286  1.0
  Zn  Zn164  1  0.05208333  0.67559524  0.07589286  1.0
  Zn  Zn165  1  0.38541667  0.00892857  0.07589286  1.0
  Zn  Zn166  1  0.38541667  0.34226190  0.07589286  1.0
  Zn  Zn167  1  0.38541667  0.67559524  0.07589286  1.0
  Zn  Zn168  1  0.71875000  0.00892857  0.07589286  1.0
  Zn  Zn169  1  0.71875000  0.34226190  0.07589286  1.0
  Zn  Zn170  1  0.71875000  0.67559524  0.07589286  1.0
  Zn  Zn171  1  0.30208333  0.19940476  0.11160714  1.0
  Zn  Zn172  1  0.30208333  0.53273810  0.11160714  1.0
  Zn  Zn173  1  0.30208333  0.86607143  0.11160714  1.0
  Zn  Zn174  1  0.63541667  0.19940476  0.11160714  1.0
  Zn  Zn175  1  0.63541667  0.53273810  0.11160714  1.0
  Zn  Zn176  1  0.63541667  0.86607143  0.11160714  1.0
  Zn  Zn177  1  0.96875000  0.19940476  0.11160714  1.0
  Zn  Zn178  1  0.96875000  0.53273810  0.11160714  1.0
  Zn  Zn179  1  0.96875000  0.86607143  0.11160714  1.0
  Zn  Zn180  1  0.09375000  0.12797619  0.12946429  1.0
  Zn  Zn181  1  0.09375000  0.46130952  0.12946429  1.0
  Zn  Zn182  1  0.09375000  0.79464286  0.12946429  1.0
  Zn  Zn183  1  0.42708333  0.12797619  0.12946429  1.0
  Zn  Zn184  1  0.42708333  0.46130952  0.12946429  1.0
  Zn  Zn185  1  0.42708333  0.79464286  0.12946429  1.0
  Zn  Zn186  1  0.76041667  0.12797619  0.12946429  1.0
  Zn  Zn187  1  0.76041667  0.46130952  0.12946429  1.0
  Zn  Zn188  1  0.76041667  0.79464286  0.12946429  1.0
  Zn  Zn189  1  0.17708333  0.27083333  0.09375000  1.0
  Zn  Zn190  1  0.17708333  0.60416667  0.09375000  1.0
  Zn  Zn191  1  0.17708333  0.93750000  0.09375000  1.0
  Zn  Zn192  1  0.51041667  0.27083333  0.09375000  1.0
  Zn  Zn193  1  0.51041667  0.60416667  0.09375000  1.0
  Zn  Zn194  1  0.51041667  0.93750000  0.09375000  1.0
  Zn  Zn195  1  0.84375000  0.27083333  0.09375000  1.0
  Zn  Zn196  1  0.84375000  0.60416667  0.09375000  1.0
  Zn  Zn197  1  0.84375000  0.93750000  0.09375000  1.0
  Zn  Zn198  1  0.19791667  0.16369048  0.12053571  1.0
  Zn  Zn199  1  0.19791667  0.49702381  0.12053571  1.0
  Zn  Zn200  1  0.19791667  0.83035714  0.12053571  1.0
  Zn  Zn201  1  0.53125000  0.16369048  0.12053571  1.0
  Zn  Zn202  1  0.53125000  0.49702381  0.12053571  1.0
  Zn  Zn203  1  0.53125000  0.83035714  0.12053571  1.0
  Zn  Zn204  1  0.86458333  0.16369048  0.12053571  1.0
  Zn  Zn205  1  0.86458333  0.49702381  0.12053571  1.0
  Zn  Zn206  1  0.86458333  0.83035714  0.12053571  1.0
  Zn  Zn207  1  0.28125000  0.30654762  0.08482143  1.0
  Zn  Zn208  1  0.28125000  0.63988095  0.08482143  1.0
  Zn  Zn209  1  0.28125000  0.97321429  0.08482143  1.0
  Zn  Zn210  1  0.61458333  0.30654762  0.08482143  1.0
  Zn  Zn211  1  0.61458333  0.63988095  0.08482143  1.0
  Zn  Zn212  1  0.61458333  0.97321429  0.08482143  1.0
  Zn  Zn213  1  0.94791667  0.30654762  0.08482143  1.0
  Zn  Zn214  1  0.94791667  0.63988095  0.08482143  1.0
  Zn  Zn215  1  0.94791667  0.97321429  0.08482143  1.0
  Zn  Zn216  1  0.21875000  0.05654762  0.14732143  1.0
  Zn  Zn217  1  0.21875000  0.38988095  0.14732143  1.0
  Zn  Zn218  1  0.21875000  0.72321429  0.14732143  1.0
  Zn  Zn219  1  0.55208333  0.05654762  0.14732143  1.0
  Zn  Zn220  1  0.55208333  0.38988095  0.14732143  1.0
  Zn  Zn221  1  0.55208333  0.72321429  0.14732143  1.0
  Zn  Zn222  1  0.88541667  0.05654762  0.14732143  1.0
  Zn  Zn223  1  0.88541667  0.38988095  0.14732143  1.0
  Zn  Zn224  1  0.88541667  0.72321429  0.14732143  1.0
  Zn  Zn225  1  0.13541667  0.24702381  0.18303571  1.0
  Zn  Zn226  1  0.13541667  0.58035714  0.18303571  1.0
  Zn  Zn227  1  0.13541667  0.91369048  0.18303571  1.0
  Zn  Zn228  1  0.46875000  0.24702381  0.18303571  1.0
  Zn  Zn229  1  0.46875000  0.58035714  0.18303571  1.0
  Zn  Zn230  1  0.46875000  0.91369048  0.18303571  1.0
  Zn  Zn231  1  0.80208333  0.24702381  0.18303571  1.0
  Zn  Zn232  1  0.80208333  0.58035714  0.18303571  1.0
  Zn  Zn233  1  0.80208333  0.91369048  0.18303571  1.0
  Zn  Zn234  1  0.26041667  0.17559524  0.20089286  1.0
  Zn  Zn235  1  0.26041667  0.50892857  0.20089286  1.0
  Zn  Zn236  1  0.26041667  0.84226190  0.20089286  1.0
  Zn  Zn237  1  0.59375000  0.17559524  0.20089286  1.0
  Zn  Zn238  1  0.59375000  0.50892857  0.20089286  1.0
  Zn  Zn239  1  0.59375000  0.84226190  0.20089286  1.0
  Zn  Zn240  1  0.92708333  0.17559524  0.20089286  1.0
  Zn  Zn241  1  0.92708333  0.50892857  0.20089286  1.0
  Zn  Zn242  1  0.92708333  0.84226190  0.20089286  1.0
  Zn  Zn243  1  0.01041667  0.31845238  0.16517857  1.0
  Zn  Zn244  1  0.01041667  0.65178571  0.16517857  1.0
  Zn  Zn245  1  0.01041667  0.98511905  0.16517857  1.0
  Zn  Zn246  1  0.34375000  0.31845238  0.16517857  1.0
  Zn  Zn247  1  0.34375000  0.65178571  0.16517857  1.0
  Zn  Zn248  1  0.34375000  0.98511905  0.16517857  1.0
  Zn  Zn249  1  0.67708333  0.31845238  0.16517857  1.0
  Zn  Zn250  1  0.67708333  0.65178571  0.16517857  1.0
  Zn  Zn251  1  0.67708333  0.98511905  0.16517857  1.0
  Zn  Zn252  1  0.03125000  0.21130952  0.19196429  1.0
  Zn  Zn253  1  0.03125000  0.54464286  0.19196429  1.0
  Zn  Zn254  1  0.03125000  0.87797619  0.19196429  1.0
  Zn  Zn255  1  0.36458333  0.21130952  0.19196429  1.0
  Zn  Zn256  1  0.36458333  0.54464286  0.19196429  1.0
  Zn  Zn257  1  0.36458333  0.87797619  0.19196429  1.0
  Zn  Zn258  1  0.69791667  0.21130952  0.19196429  1.0
  Zn  Zn259  1  0.69791667  0.54464286  0.19196429  1.0
  Zn  Zn260  1  0.69791667  0.87797619  0.19196429  1.0
  Zn  Zn261  1  0.11458333  0.02083333  0.15625000  1.0
  Zn  Zn262  1  0.11458333  0.35416667  0.15625000  1.0
  Zn  Zn263  1  0.11458333  0.68750000  0.15625000  1.0
  Zn  Zn264  1  0.44791667  0.02083333  0.15625000  1.0
  Zn  Zn265  1  0.44791667  0.35416667  0.15625000  1.0
  Zn  Zn266  1  0.44791667  0.68750000  0.15625000  1.0
  Zn  Zn267  1  0.78125000  0.02083333  0.15625000  1.0
  Zn  Zn268  1  0.78125000  0.35416667  0.15625000  1.0
  Zn  Zn269  1  0.78125000  0.68750000  0.15625000  1.0
  Zn  Zn270  1  0.05208333  0.10416667  0.21875000  1.0
  Zn  Zn271  1  0.05208333  0.43750000  0.21875000  1.0
  Zn  Zn272  1  0.05208333  0.77083333  0.21875000  1.0
  Zn  Zn273  1  0.38541667  0.10416667  0.21875000  1.0
  Zn  Zn274  1  0.38541667  0.43750000  0.21875000  1.0
  Zn  Zn275  1  0.38541667  0.77083333  0.21875000  1.0
  Zn  Zn276  1  0.71875000  0.10416667  0.21875000  1.0
  Zn  Zn277  1  0.71875000  0.43750000  0.21875000  1.0
  Zn  Zn278  1  0.71875000  0.77083333  0.21875000  1.0
  Zn  Zn279  1  0.30208333  0.29464286  0.25446429  1.0
  Zn  Zn280  1  0.30208333  0.62797619  0.25446429  1.0
  Zn  Zn281  1  0.30208333  0.96130952  0.25446429  1.0
  Zn  Zn282  1  0.63541667  0.29464286  0.25446429  1.0
  Zn  Zn283  1  0.63541667  0.62797619  0.25446429  1.0
  Zn  Zn284  1  0.63541667  0.96130952  0.25446429  1.0
  Zn  Zn285  1  0.96875000  0.29464286  0.25446429  1.0
  Zn  Zn286  1  0.96875000  0.62797619  0.25446429  1.0
  Zn  Zn287  1  0.96875000  0.96130952  0.25446429  1.0
  Zn  Zn288  1  0.09375000  0.22321429  0.27232143  1.0
  Zn  Zn289  1  0.09375000  0.55654762  0.27232143  1.0
  Zn  Zn290  1  0.09375000  0.88988095  0.27232143  1.0
  Zn  Zn291  1  0.42708333  0.22321429  0.27232143  1.0
  Zn  Zn292  1  0.42708333  0.55654762  0.27232143  1.0
  Zn  Zn293  1  0.42708333  0.88988095  0.27232143  1.0
  Zn  Zn294  1  0.76041667  0.22321429  0.27232143  1.0
  Zn  Zn295  1  0.76041667  0.55654762  0.27232143  1.0
  Zn  Zn296  1  0.76041667  0.88988095  0.27232143  1.0
  Zn  Zn297  1  0.17708333  0.03273810  0.23660714  1.0
  Zn  Zn298  1  0.17708333  0.36607143  0.23660714  1.0
  Zn  Zn299  1  0.17708333  0.69940476  0.23660714  1.0
  Zn  Zn300  1  0.51041667  0.03273810  0.23660714  1.0
  Zn  Zn301  1  0.51041667  0.36607143  0.23660714  1.0
  Zn  Zn302  1  0.51041667  0.69940476  0.23660714  1.0
  Zn  Zn303  1  0.84375000  0.03273810  0.23660714  1.0
  Zn  Zn304  1  0.84375000  0.36607143  0.23660714  1.0
  Zn  Zn305  1  0.84375000  0.69940476  0.23660714  1.0
  Zn  Zn306  1  0.19791667  0.25892857  0.26339286  1.0
  Zn  Zn307  1  0.19791667  0.59226190  0.26339286  1.0
  Zn  Zn308  1  0.19791667  0.92559524  0.26339286  1.0
  Zn  Zn309  1  0.53125000  0.25892857  0.26339286  1.0
  Zn  Zn310  1  0.53125000  0.59226190  0.26339286  1.0
  Zn  Zn311  1  0.53125000  0.92559524  0.26339286  1.0
  Zn  Zn312  1  0.86458333  0.25892857  0.26339286  1.0
  Zn  Zn313  1  0.86458333  0.59226190  0.26339286  1.0
  Zn  Zn314  1  0.86458333  0.92559524  0.26339286  1.0
  Zn  Zn315  1  0.28125000  0.06845238  0.22767857  1.0
  Zn  Zn316  1  0.28125000  0.40178571  0.22767857  1.0
  Zn  Zn317  1  0.28125000  0.73511905  0.22767857  1.0
  Zn  Zn318  1  0.61458333  0.06845238  0.22767857  1.0
  Zn  Zn319  1  0.61458333  0.40178571  0.22767857  1.0
  Zn  Zn320  1  0.61458333  0.73511905  0.22767857  1.0
  Zn  Zn321  1  0.94791667  0.06845238  0.22767857  1.0
  Zn  Zn322  1  0.94791667  0.40178571  0.22767857  1.0
  Zn  Zn323  1  0.94791667  0.73511905  0.22767857  1.0
  Zn  Zn324  1  0.21875000  0.15178571  0.29017857  1.0
  Zn  Zn325  1  0.21875000  0.48511905  0.29017857  1.0
  Zn  Zn326  1  0.21875000  0.81845238  0.29017857  1.0
  Zn  Zn327  1  0.55208333  0.15178571  0.29017857  1.0
  Zn  Zn328  1  0.55208333  0.48511905  0.29017857  1.0
  Zn  Zn329  1  0.55208333  0.81845238  0.29017857  1.0
  Zn  Zn330  1  0.88541667  0.15178571  0.29017857  1.0
  Zn  Zn331  1  0.88541667  0.48511905  0.29017857  1.0
  Zn  Zn332  1  0.88541667  0.81845238  0.29017857  1.0
  Zn  Zn333  1  0.13541667  0.00892857  0.32589286  1.0
  Zn  Zn334  1  0.13541667  0.34226190  0.32589286  1.0
  Zn  Zn335  1  0.13541667  0.67559524  0.32589286  1.0
  Zn  Zn336  1  0.46875000  0.00892857  0.32589286  1.0
  Zn  Zn337  1  0.46875000  0.34226190  0.32589286  1.0
  Zn  Zn338  1  0.46875000  0.67559524  0.32589286  1.0
  Zn  Zn339  1  0.80208333  0.00892857  0.32589286  1.0
  Zn  Zn340  1  0.80208333  0.34226190  0.32589286  1.0
  Zn  Zn341  1  0.80208333  0.67559524  0.32589286  1.0
  Zn  Zn342  1  0.26041667  0.27083333  0.34375000  1.0
  Zn  Zn343  1  0.26041667  0.60416667  0.34375000  1.0
  Zn  Zn344  1  0.26041667  0.93750000  0.34375000  1.0
  Zn  Zn345  1  0.59375000  0.27083333  0.34375000  1.0
  Zn  Zn346  1  0.59375000  0.60416667  0.34375000  1.0
  Zn  Zn347  1  0.59375000  0.93750000  0.34375000  1.0
  Zn  Zn348  1  0.92708333  0.27083333  0.34375000  1.0
  Zn  Zn349  1  0.92708333  0.60416667  0.34375000  1.0
  Zn  Zn350  1  0.92708333  0.93750000  0.34375000  1.0
  Zn  Zn351  1  0.01041667  0.08035714  0.30803571  1.0
  Zn  Zn352  1  0.01041667  0.41369048  0.30803571  1.0
  Zn  Zn353  1  0.01041667  0.74702381  0.30803571  1.0
  Zn  Zn354  1  0.34375000  0.08035714  0.30803571  1.0
  Zn  Zn355  1  0.34375000  0.41369048  0.30803571  1.0
  Zn  Zn356  1  0.34375000  0.74702381  0.30803571  1.0
  Zn  Zn357  1  0.67708333  0.08035714  0.30803571  1.0
  Zn  Zn358  1  0.67708333  0.41369048  0.30803571  1.0
  Zn  Zn359  1  0.67708333  0.74702381  0.30803571  1.0
  Zn  Zn360  1  0.03125000  0.30654762  0.33482143  1.0
  Zn  Zn361  1  0.03125000  0.63988095  0.33482143  1.0
  Zn  Zn362  1  0.03125000  0.97321429  0.33482143  1.0
  Zn  Zn363  1  0.36458333  0.30654762  0.33482143  1.0
  Zn  Zn364  1  0.36458333  0.63988095  0.33482143  1.0
  Zn  Zn365  1  0.36458333  0.97321429  0.33482143  1.0
  Zn  Zn366  1  0.69791667  0.30654762  0.33482143  1.0
  Zn  Zn367  1  0.69791667  0.63988095  0.33482143  1.0
  Zn  Zn368  1  0.69791667  0.97321429  0.33482143  1.0
  Zn  Zn369  1  0.11458333  0.11607143  0.29910714  1.0
  Zn  Zn370  1  0.11458333  0.44940476  0.29910714  1.0
  Zn  Zn371  1  0.11458333  0.78273810  0.29910714  1.0
  Zn  Zn372  1  0.44791667  0.11607143  0.29910714  1.0
  Zn  Zn373  1  0.44791667  0.44940476  0.29910714  1.0
  Zn  Zn374  1  0.44791667  0.78273810  0.29910714  1.0
  Zn  Zn375  1  0.78125000  0.11607143  0.29910714  1.0
  Zn  Zn376  1  0.78125000  0.44940476  0.29910714  1.0
  Zn  Zn377  1  0.78125000  0.78273810  0.29910714  1.0
  Zn  Zn378  1  0.05208333  0.19940476  0.36160714  1.0
  Zn  Zn379  1  0.05208333  0.53273810  0.36160714  1.0
  Zn  Zn380  1  0.05208333  0.86607143  0.36160714  1.0
  Zn  Zn381  1  0.38541667  0.19940476  0.36160714  1.0
  Zn  Zn382  1  0.38541667  0.53273810  0.36160714  1.0
  Zn  Zn383  1  0.38541667  0.86607143  0.36160714  1.0
  Zn  Zn384  1  0.71875000  0.19940476  0.36160714  1.0
  Zn  Zn385  1  0.71875000  0.53273810  0.36160714  1.0
  Zn  Zn386  1  0.71875000  0.86607143  0.36160714  1.0
  Zn  Zn387  1  0.30208333  0.05654762  0.39732143  1.0
  Zn  Zn388  1  0.30208333  0.38988095  0.39732143  1.0
  Zn  Zn389  1  0.30208333  0.72321429  0.39732143  1.0
  Zn  Zn390  1  0.63541667  0.05654762  0.39732143  1.0
  Zn  Zn391  1  0.63541667  0.38988095  0.39732143  1.0
  Zn  Zn392  1  0.63541667  0.72321429  0.39732143  1.0
  Zn  Zn393  1  0.96875000  0.05654762  0.39732143  1.0
  Zn  Zn394  1  0.96875000  0.38988095  0.39732143  1.0
  Zn  Zn395  1  0.96875000  0.72321429  0.39732143  1.0
  Zn  Zn396  1  0.09375000  0.31845238  0.41517857  1.0
  Zn  Zn397  1  0.09375000  0.65178571  0.41517857  1.0
  Zn  Zn398  1  0.09375000  0.98511905  0.41517857  1.0
  Zn  Zn399  1  0.42708333  0.31845238  0.41517857  1.0
  Zn  Zn400  1  0.42708333  0.65178571  0.41517857  1.0
  Zn  Zn401  1  0.42708333  0.98511905  0.41517857  1.0
  Zn  Zn402  1  0.76041667  0.31845238  0.41517857  1.0
  Zn  Zn403  1  0.76041667  0.65178571  0.41517857  1.0
  Zn  Zn404  1  0.76041667  0.98511905  0.41517857  1.0
  Zn  Zn405  1  0.17708333  0.12797619  0.37946429  1.0
  Zn  Zn406  1  0.17708333  0.46130952  0.37946429  1.0
  Zn  Zn407  1  0.17708333  0.79464286  0.37946429  1.0
  Zn  Zn408  1  0.51041667  0.12797619  0.37946429  1.0
  Zn  Zn409  1  0.51041667  0.46130952  0.37946429  1.0
  Zn  Zn410  1  0.51041667  0.79464286  0.37946429  1.0
  Zn  Zn411  1  0.84375000  0.12797619  0.37946429  1.0
  Zn  Zn412  1  0.84375000  0.46130952  0.37946429  1.0
  Zn  Zn413  1  0.84375000  0.79464286  0.37946429  1.0
  Zn  Zn414  1  0.19791667  0.02083333  0.40625000  1.0
  Zn  Zn415  1  0.19791667  0.35416667  0.40625000  1.0
  Zn  Zn416  1  0.19791667  0.68750000  0.40625000  1.0
  Zn  Zn417  1  0.53125000  0.02083333  0.40625000  1.0
  Zn  Zn418  1  0.53125000  0.35416667  0.40625000  1.0
  Zn  Zn419  1  0.53125000  0.68750000  0.40625000  1.0
  Zn  Zn420  1  0.86458333  0.02083333  0.40625000  1.0
  Zn  Zn421  1  0.86458333  0.35416667  0.40625000  1.0
  Zn  Zn422  1  0.86458333  0.68750000  0.40625000  1.0
  Zn  Zn423  1  0.28125000  0.16369048  0.37053571  1.0
  Zn  Zn424  1  0.28125000  0.49702381  0.37053571  1.0
  Zn  Zn425  1  0.28125000  0.83035714  0.37053571  1.0
  Zn  Zn426  1  0.61458333  0.16369048  0.37053571  1.0
  Zn  Zn427  1  0.61458333  0.49702381  0.37053571  1.0
  Zn  Zn428  1  0.61458333  0.83035714  0.37053571  1.0
  Zn  Zn429  1  0.94791667  0.16369048  0.37053571  1.0
  Zn  Zn430  1  0.94791667  0.49702381  0.37053571  1.0
  Zn  Zn431  1  0.94791667  0.83035714  0.37053571  1.0
