# generated using pymatgen
data_Zn3Ni
_symmetry_space_group_name_H-M   'P 1'
_cell_length_a   15.97045914
_cell_length_b   15.97045914
_cell_length_c   29.99896200
_cell_angle_alpha   90.00000000
_cell_angle_beta   90.00000000
_cell_angle_gamma   120.00000000
_symmetry_Int_Tables_number   1
_chemical_formula_structural   Zn3Ni
_chemical_formula_sum   'Zn162 Ni54'
_cell_volume   6626.30868548
_cell_formula_units_Z   54
loop_
 _symmetry_equiv_pos_site_id
 _symmetry_equiv_pos_as_xyz
  1  'x, y, z'
loop_
 _atom_site_type_symbol
 _atom_site_label
 _atom_site_symmetry_multiplicity
 _atom_site_fract_x
 _atom_site_fract_y
 _atom_site_fract_z
 _atom_site_occupancy
  Zn  Zn0  1  0.05679833  0.11359667  0.03571429  1.0
  Zn  Zn1  1  0.05679833  0.44693000  0.03571429  1.0
  Zn  Zn2  1  0.05679833  0.78026333  0.03571429  1.0
  Zn  Zn3  1  0.39013167  0.11359667  0.03571429  1.0
  Zn  Zn4  1  0.39013167  0.44693000  0.03571429  1.0
  Zn  Zn5  1  0.39013167  0.78026333  0.03571429  1.0
  Zn  Zn6  1  0.72346500  0.11359667  0.03571429  1.0
  Zn  Zn7  1  0.72346500  0.44693000  0.03571429  1.0
  Zn  Zn8  1  0.72346500  0.78026333  0.03571429  1.0
  Zn  Zn9  1  0.05679833  0.27653500  0.03571429  1.0
  Zn  Zn10  1  0.05679833  0.60986833  0.03571429  1.0
  Zn  Zn11  1  0.05679833  0.94320167  0.03571429  1.0
  Zn  Zn12  1  0.39013167  0.27653500  0.03571429  1.0
  Zn  Zn13  1  0.39013167  0.60986833  0.03571429  1.0
  Zn  Zn14  1  0.39013167  0.94320167  0.03571429  1.0
  Zn  Zn15  1  0.72346500  0.27653500  0.03571429  1.0
  Zn  Zn16  1  0.72346500  0.60986833  0.03571429  1.0
  Zn  Zn17  1  0.72346500  0.94320167  0.03571429  1.0
  Zn  Zn18  1  0.21973667  0.27653500  0.03571429  1.0
  Zn  Zn19  1  0.21973667  0.60986833  0.03571429  1.0
  Zn  Zn20  1  0.21973667  0.94320167  0.03571429  1.0
  Zn  Zn21  1  0.55307000  0.27653500  0.03571429  1.0
  Zn  Zn22  1  0.55307000  0.60986833  0.03571429  1.0
  Zn  Zn23  1  0.55307000  0.94320167  0.03571429  1.0
  Zn  Zn24  1  0.88640333  0.27653500  0.03571429  1.0
  Zn  Zn25  1  0.88640333  0.60986833  0.03571429  1.0
  Zn  Zn26  1  0.88640333  0.94320167  0.03571429  1.0
  Zn  Zn27  1  0.27653500  0.21973667  0.10714286  1.0
  Zn  Zn28  1  0.27653500  0.55307000  0.10714286  1.0
  Zn  Zn29  1  0.27653500  0.88640333  0.10714286  1.0
  Zn  Zn30  1  0.60986833  0.21973667  0.10714286  1.0
  Zn  Zn31  1  0.60986833  0.55307000  0.10714286  1.0
  Zn  Zn32  1  0.60986833  0.88640333  0.10714286  1.0
  Zn  Zn33  1  0.94320167  0.21973667  0.10714286  1.0
  Zn  Zn34  1  0.94320167  0.55307000  0.10714286  1.0
  Zn  Zn35  1  0.94320167  0.88640333  0.10714286  1.0
  Zn  Zn36  1  0.27653500  0.05679833  0.10714286  1.0
  Zn  Zn37  1  0.27653500  0.39013167  0.10714286  1.0
  Zn  Zn38  1  0.27653500  0.72346500  0.10714286  1.0
  Zn  Zn39  1  0.60986833  0.05679833  0.10714286  1.0
  Zn  Zn40  1  0.60986833  0.39013167  0.10714286  1.0
  Zn  Zn41  1  0.60986833  0.72346500  0.10714286  1.0
  Zn  Zn42  1  0.94320167  0.05679833  0.10714286  1.0
  Zn  Zn43  1  0.94320167  0.39013167  0.10714286  1.0
  Zn  Zn44  1  0.94320167  0.72346500  0.10714286  1.0
  Zn  Zn45  1  0.11359667  0.05679833  0.10714286  1.0
  Zn  Zn46  1  0.11359667  0.39013167  0.10714286  1.0
  Zn  Zn47  1  0.11359667  0.72346500  0.10714286  1.0
  Zn  Zn48  1  0.44693000  0.05679833  0.10714286  1.0
  Zn  Zn49  1  0.44693000  0.39013167  0.10714286  1.0
  Zn  Zn50  1  0.44693000  0.72346500  0.10714286  1.0
  Zn  Zn51  1  0.78026333  0.05679833  0.10714286  1.0
  Zn  Zn52  1  0.78026333  0.39013167  0.10714286  1.0
  Zn  Zn53  1  0.78026333  0.72346500  0.10714286  1.0
  Ni  Ni54  1  0.22222222  0.11111111  0.03571429  1.0
  Ni  Ni55  1  0.22222222  0.44444444  0.03571429  1.0
  Ni  Ni56  1  0.22222222  0.77777778  0.03571429  1.0
  Ni  Ni57  1  0.55555556  0.11111111  0.03571429  1.0
  Ni  Ni58  1  0.55555556  0.44444444  0.03571429  1.0
  Ni  Ni59  1  0.55555556  0.77777778  0.03571429  1.0
  Ni  Ni60  1  0.88888889  0.11111111  0.03571429  1.0
  Ni  Ni61  1  0.88888889  0.44444444  0.03571429  1.0
  Ni  Ni62  1  0.88888889  0.77777778  0.03571429  1.0
  Ni  Ni63  1  0.11111111  0.22222222  0.10714286  1.0
  Ni  Ni64  1  0.11111111  0.55555556  0.10714286  1.0
  Ni  Ni65  1  0.11111111  0.88888889  0.10714286  1.0
  Ni  Ni66  1  0.44444444  0.22222222  0.10714286  1.0
  Ni  Ni67  1  0.44444444  0.55555556  0.10714286  1.0
  Ni  Ni68  1  0.44444444  0.88888889  0.10714286  1.0
  Ni  Ni69  1  0.77777778  0.22222222  0.10714286  1.0
  Ni  Ni70  1  0.77777778  0.55555556  0.10714286  1.0
  Ni  Ni71  1  0.77777778  0.88888889  0.10714286  1.0
  Zn  Zn72  1  0.05679833  0.11359667  0.17857143  1.0
  Zn  Zn73  1  0.05679833  0.44693000  0.17857143  1.0
  Zn  Zn74  1  0.05679833  0.78026333  0.17857143  1.0
  Zn  Zn75  1  0.39013167  0.11359667  0.17857143  1.0
  Zn  Zn76  1  0.39013167  0.44693000  0.17857143  1.0
  Zn  Zn77  1  0.39013167  0.78026333  0.17857143  1.0
  Zn  Zn78  1  0.72346500  0.11359667  0.17857143  1.0
  Zn  Zn79  1  0.72346500  0.44693000  0.17857143  1.0
  Zn  Zn80  1  0.72346500  0.78026333  0.17857143  1.0
  Zn  Zn81  1  0.05679833  0.27653500  0.17857143  1.0
  Zn  Zn82  1  0.05679833  0.60986833  0.17857143  1.0
  Zn  Zn83  1  0.05679833  0.94320167  0.17857143  1.0
  Zn  Zn84  1  0.39013167  0.27653500  0.17857143  1.0
  Zn  Zn85  1  0.39013167  0.60986833  0.17857143  1.0
  Zn  Zn86  1  0.39013167  0.94320167  0.17857143  1.0
  Zn  Zn87  1  0.72346500  0.27653500  0.17857143  1.0
  Zn  Zn88  1  0.72346500  0.60986833  0.17857143  1.0
  Zn  Zn89  1  0.72346500  0.94320167  0.17857143  1.0
  Zn  Zn90  1  0.21973667  0.27653500  0.17857143  1.0
  Zn  Zn91  1  0.21973667  0.60986833  0.17857143  1.0
  Zn  Zn92  1  0.21973667  0.94320167  0.17857143  1.0
  Zn  Zn93  1  0.55307000  0.27653500  0.17857143  1.0
  Zn  Zn94  1  0.55307000  0.60986833  0.17857143  1.0
  Zn  Zn95  1  0.55307000  0.94320167  0.17857143  1.0
  Zn  Zn96  1  0.88640333  0.27653500  0.17857143  1.0
  Zn  Zn97  1  0.88640333  0.60986833  0.17857143  1.0
  Zn  Zn98  1  0.88640333  0.94320167  0.17857143  1.0
  Zn  Zn99  1  0.27653500  0.21973667  0.25000000  1.0
  Zn  Zn100  1  0.27653500  0.55307000  0.25000000  1.0
  Zn  Zn101  1  0.27653500  0.88640333  0.25000000  1.0
  Zn  Zn102  1  0.60986833  0.21973667  0.25000000  1.0
  Zn  Zn103  1  0.60986833  0.55307000  0.25000000  1.0
  Zn  Zn104  1  0.60986833  0.88640333  0.25000000  1.0
  Zn  Zn105  1  0.94320167  0.21973667  0.25000000  1.0
  Zn  Zn106  1  0.94320167  0.55307000  0.25000000  1.0
  Zn  Zn107  1  0.94320167  0.88640333  0.25000000  1.0
  Zn  Zn108  1  0.27653500  0.05679833  0.25000000  1.0
  Zn  Zn109  1  0.27653500  0.39013167  0.25000000  1.0
  Zn  Zn110  1  0.27653500  0.72346500  0.25000000  1.0
  Zn  Zn111  1  0.60986833  0.05679833  0.25000000  1.0
  Zn  Zn112  1  0.60986833  0.39013167  0.25000000  1.0
  Zn  Zn113  1  0.60986833  0.72346500  0.25000000  1.0
  Zn  Zn114  1  0.94320167  0.05679833  0.25000000  1.0
  Zn  Zn115  1  0.94320167  0.39013167  0.25000000  1.0
  Zn  Zn116  1  0.94320167  0.72346500  0.25000000  1.0
  Zn  Zn117  1  0.11359667  0.05679833  0.25000000  1.0
  Zn  Zn118  1  0.11359667  0.39013167  0.25000000  1.0
  Zn  Zn119  1  0.11359667  0.72346500  0.25000000  1.0
  Zn  Zn120  1  0.44693000  0.05679833  0.25000000  1.0
  Zn  Zn121  1  0.44693000  0.39013167  0.25000000  1.0
  Zn  Zn122  1  0.44693000  0.72346500  0.25000000  1.0
  Zn  Zn123  1  0.78026333  0.05679833  0.25000000  1.0
  Zn  Zn124  1  0.78026333  0.39013167  0.25000000  1.0
  Zn  Zn125  1  0.78026333  0.72346500  0.25000000  1.0
  Ni  Ni126  1  0.22222222  0.11111111  0.17857143  1.0
  Ni  Ni127  1  0.22222222  0.44444444  0.17857143  1.0
  Ni  Ni128  1  0.22222222  0.77777778  0.17857143  1.0
  Ni  Ni129  1  0.55555556  0.11111111  0.17857143  1.0
  Ni  Ni130  1  0.55555556  0.44444444  0.17857143  1.0
  Ni  Ni131  1  0.55555556  0.77777778  0.17857143  1.0
  Ni  Ni132  1  0.88888889  0.11111111  0.17857143  1.0
  Ni  Ni133  1  0.88888889  0.44444444  0.17857143  1.0
  Ni  Ni134  1  0.88888889  0.77777778  0.17857143  1.0
  Ni  Ni135  1  0.11111111  0.22222222  0.25000000  1.0
  Ni  Ni136  1  0.11111111  0.55555556  0.25000000  1.0
  Ni  Ni137  1  0.11111111  0.88888889  0.25000000  1.0
  Ni  Ni138  1  0.44444444  0.22222222  0.25000000  1.0
  Ni  Ni139  1  0.44444444  0.55555556  0.25000000  1.0
  Ni  Ni140  1  0.44444444  0.88888889  0.25000000  1.0
  Ni  Ni141  1  0.77777778  0.22222222  0.25000000  1.0
  Ni  Ni142  1  0.77777778  0.55555556  0.25000000  1.0
  Ni  Ni143  1  0.77777778  0.88888889  0.25000000  1.0
  Zn  Zn144  1  0.05679833  0.11359667  0.32142857  1.0
  Zn  Zn145  1  0.05679833  0.44693000  0.32142857  1.0
  Zn  Zn146  1  0.05679833  0.78026333  0.32142857  1.0
  Zn  Zn147  1  0.39013167  0.11359667  0.32142857  1.0
  Zn  Zn148  1  0.39013167  0.44693000  0.32142857  1.0
  Zn  Zn149  1  0.39013167  0.78026333  0.32142857  1.0
  Zn  Zn150  1  0.72346500  0.11359667  0.32142857  1.0
  Zn  Zn151  1  0.72346500  0.44693000  0.32142857  1.0
  Zn  Zn152  1  0.72346500  0.78026333  0.32142857  1.0
  Zn  Zn153  1  0.05679833  0.27653500  0.32142857  1.0
  Zn  Zn154  1  0.05679833  0.60986833  0.32142857  1.0
  Zn  Zn155  1  0.05679833  0.94320167  0.32142857  1.0
  Zn  Zn156  1  0.39013167  0.27653500  0.32142857  1.0
  Zn  Zn157  1  0.39013167  0.60986833  0.32142857  1.0
  Zn  Zn158  1  0.39013167  0.94320167  0.32142857  1.0
  Zn  Zn159  1  0.72346500  0.27653500  0.32142857  1.0
  Zn  Zn160  1  0.72346500  0.60986833  0.32142857  1.0
  Zn  Zn161  1  0.72346500  0.94320167  0.32142857  1.0
  Zn  Zn162  1  0.21973667  0.27653500  0.32142857  1.0
  Zn  Zn163  1  0.21973667  0.60986833  0.32142857  1.0
  Zn  Zn164  1  0.21973667  0.94320167  0.32142857  1.0
  Zn  Zn165  1  0.55307000  0.27653500  0.32142857  1.0
  Zn  Zn166  1  0.55307000  0.60986833  0.32142857  1.0
  Zn  Zn167  1  0.55307000  0.94320167  0.32142857  1.0
  Zn  Zn168  1  0.88640333  0.27653500  0.32142857  1.0
  Zn  Zn169  1  0.88640333  0.60986833  0.32142857  1.0
  Zn  Zn170  1  0.88640333  0.94320167  0.32142857  1.0
  Zn  Zn171  1  0.27653500  0.21973667  0.39285714  1.0
  Zn  Zn172  1  0.27653500  0.55307000  0.39285714  1.0
  Zn  Zn173  1  0.27653500  0.88640333  0.39285714  1.0
  Zn  Zn174  1  0.60986833  0.21973667  0.39285714  1.0
  Zn  Zn175  1  0.60986833  0.55307000  0.39285714  1.0
  Zn  Zn176  1  0.60986833  0.88640333  0.39285714  1.0
  Zn  Zn177  1  0.94320167  0.21973667  0.39285714  1.0
  Zn  Zn178  1  0.94320167  0.55307000  0.39285714  1.0
  Zn  Zn179  1  0.94320167  0.88640333  0.39285714  1.0
  Zn  Zn180  1  0.27653500  0.05679833  0.39285714  1.0
  Zn  Zn181  1  0.27653500  0.39013167  0.39285714  1.0
  Zn  Zn182  1  0.27653500  0.72346500  0.39285714  1.0
  Zn  Zn183  1  0.60986833  0.05679833  0.39285714  1.0
  Zn  Zn184  1  0.60986833  0.39013167  0.39285714  1.0
  Zn  Zn185  1  0.60986833  0.72346500  0.39285714  1.0
  Zn  Zn186  1  0.94320167  0.05679833  0.39285714  1.0
  Zn  Zn187  1  0.94320167  0.39013167  0.39285714  1.0
  Zn  Zn188  1  0.94320167  0.72346500  0.39285714  1.0
  Zn  Zn189  1  0.11359667  0.05679833  0.39285714  1.0
  Zn  Zn190  1  0.11359667  0.39013167  0.39285714  1.0
  Zn  Zn191  1  0.11359667  0.72346500  0.39285714  1.0
  Zn  Zn192  1  0.44693000  0.05679833  0.39285714  1.0
  Zn  Zn193  1  0.44693000  0.39013167  0.39285714  1.0
  Zn  Zn194  1  0.44693000  0.72346500  0.39285714  1.0
  Zn  Zn195  1  0.78026333  0.05679833  0.39285714  1.0
  Zn  Zn196  1  0.78026333  0.39013167  0.39285714  1.0
  Zn  Zn197  1  0.78026333  0.72346500  0.39285714  1.0
  Ni  Ni198  1  0.22222222  0.11111111  0.32142857  1.0
  Ni  Ni199  1  0.22222222  0.44444444  0.32142857  1.0
  Ni  Ni200  1  0.22222222  0.77777778  0.32142857  1.0
  Ni  Ni201  1  0.55555556  0.11111111  0.32142857  1.0
  Ni  Ni202  1  0.55555556  0.44444444  0.32142857  1.0
  Ni  Ni203  1  0.55555556  0.77777778  0.32142857  1.0
  Ni  Ni204  1  0.88888889  0.11111111  0.32142857  1.0
  Ni  Ni205  1  0.88888889  0.44444444  0.32142857  1.0
  Ni  Ni206  1  0.88888889  0.77777778  0.32142857  1.0
  Ni  Ni207  1  0.11111111  0.22222222  0.39285714  1.0
  Ni  Ni208  1  0.11111111  0.55555556  0.39285714  1.0
  Ni  Ni209  1  0.11111111  0.88888889  0.39285714  1.0
  Ni  Ni210  1  0.44444444  0.22222222  0.39285714  1.0
  Ni  Ni211  1  0.44444444  0.55555556  0.39285714  1.0
  Ni  Ni212  1  0.44444444  0.88888889  0.39285714  1.0
  Ni  Ni213  1  0.77777778  0.22222222  0.39285714  1.0
  Ni  Ni214  1  0.77777778  0.55555556  0.39285714  1.0
  Ni  Ni215  1  0.77777778  0.88888889  0.39285714  1.0
