# generated using pymatgen
data_Zn3Ni
_symmetry_space_group_name_H-M   'P 1'
_cell_length_a   20.50244494
_cell_length_b   30.26936238
_cell_length_c   29.44436290
_cell_angle_alpha   97.71715017
_cell_angle_beta   92.39034670
_cell_angle_gamma   109.09916818
_symmetry_Int_Tables_number   1
_chemical_formula_structural   Zn3Ni
_chemical_formula_sum   'Zn432 Ni144'
_cell_volume   17039.07947696
_cell_formula_units_Z   144
loop_
 _symmetry_equiv_pos_site_id
 _symmetry_equiv_pos_as_xyz
  1  'x, y, z'
loop_
 _atom_site_type_symbol
 _atom_site_label
 _atom_site_symmetry_multiplicity
 _atom_site_fract_x
 _atom_site_fract_y
 _atom_site_fract_z
 _atom_site_occupancy
  Ni  Ni0  1  0.30246914  0.32407407  0.10648148  1.0
  Ni  Ni1  1  0.30246914  0.65740741  0.10648148  1.0
  Ni  Ni2  1  0.30246914  0.99074074  0.10648148  1.0
  Ni  Ni3  1  0.63580247  0.32407407  0.10648148  1.0
  Ni  Ni4  1  0.63580247  0.65740741  0.10648148  1.0
  Ni  Ni5  1  0.63580247  0.99074074  0.10648148  1.0
  Ni  Ni6  1  0.96913580  0.32407407  0.10648148  1.0
  Ni  Ni7  1  0.96913580  0.65740741  0.10648148  1.0
  Ni  Ni8  1  0.96913580  0.99074074  0.10648148  1.0
  Ni  Ni9  1  0.04320988  0.21296296  0.05092593  1.0
  Ni  Ni10  1  0.04320988  0.54629630  0.05092593  1.0
  Ni  Ni11  1  0.04320988  0.87962963  0.05092593  1.0
  Ni  Ni12  1  0.37654321  0.21296296  0.05092593  1.0
  Ni  Ni13  1  0.37654321  0.54629630  0.05092593  1.0
  Ni  Ni14  1  0.37654321  0.87962963  0.05092593  1.0
  Ni  Ni15  1  0.70987654  0.21296296  0.05092593  1.0
  Ni  Ni16  1  0.70987654  0.54629630  0.05092593  1.0
  Ni  Ni17  1  0.70987654  0.87962963  0.05092593  1.0
  Ni  Ni18  1  0.21604938  0.23148148  0.00462963  1.0
  Ni  Ni19  1  0.21604938  0.56481481  0.00462963  1.0
  Ni  Ni20  1  0.21604938  0.89814815  0.00462963  1.0
  Ni  Ni21  1  0.54938272  0.23148148  0.00462963  1.0
  Ni  Ni22  1  0.54938272  0.56481481  0.00462963  1.0
  Ni  Ni23  1  0.54938272  0.89814815  0.00462963  1.0
  Ni  Ni24  1  0.88271605  0.23148148  0.00462963  1.0
  Ni  Ni25  1  0.88271605  0.56481481  0.00462963  1.0
  Ni  Ni26  1  0.88271605  0.89814815  0.00462963  1.0
  Ni  Ni27  1  0.14197531  0.00925926  0.06018519  1.0
  Ni  Ni28  1  0.14197531  0.34259259  0.06018519  1.0
  Ni  Ni29  1  0.14197531  0.67592593  0.06018519  1.0
  Ni  Ni30  1  0.47530864  0.00925926  0.06018519  1.0
  Ni  Ni31  1  0.47530864  0.34259259  0.06018519  1.0
  Ni  Ni32  1  0.47530864  0.67592593  0.06018519  1.0
  Ni  Ni33  1  0.80864198  0.00925926  0.06018519  1.0
  Ni  Ni34  1  0.80864198  0.34259259  0.06018519  1.0
  Ni  Ni35  1  0.80864198  0.67592593  0.06018519  1.0
  Ni  Ni36  1  0.15432099  0.21296296  0.21759259  1.0
  Ni  Ni37  1  0.15432099  0.54629630  0.21759259  1.0
  Ni  Ni38  1  0.15432099  0.87962963  0.21759259  1.0
  Ni  Ni39  1  0.48765432  0.21296296  0.21759259  1.0
  Ni  Ni40  1  0.48765432  0.54629630  0.21759259  1.0
  Ni  Ni41  1  0.48765432  0.87962963  0.21759259  1.0
  Ni  Ni42  1  0.82098765  0.21296296  0.21759259  1.0
  Ni  Ni43  1  0.82098765  0.54629630  0.21759259  1.0
  Ni  Ni44  1  0.82098765  0.87962963  0.21759259  1.0
  Ni  Ni45  1  0.22839506  0.10185185  0.16203704  1.0
  Ni  Ni46  1  0.22839506  0.43518519  0.16203704  1.0
  Ni  Ni47  1  0.22839506  0.76851852  0.16203704  1.0
  Ni  Ni48  1  0.56172840  0.10185185  0.16203704  1.0
  Ni  Ni49  1  0.56172840  0.43518519  0.16203704  1.0
  Ni  Ni50  1  0.56172840  0.76851852  0.16203704  1.0
  Ni  Ni51  1  0.89506173  0.10185185  0.16203704  1.0
  Ni  Ni52  1  0.89506173  0.43518519  0.16203704  1.0
  Ni  Ni53  1  0.89506173  0.76851852  0.16203704  1.0
  Ni  Ni54  1  0.06790123  0.12037037  0.11574074  1.0
  Ni  Ni55  1  0.06790123  0.45370370  0.11574074  1.0
  Ni  Ni56  1  0.06790123  0.78703704  0.11574074  1.0
  Ni  Ni57  1  0.40123457  0.12037037  0.11574074  1.0
  Ni  Ni58  1  0.40123457  0.45370370  0.11574074  1.0
  Ni  Ni59  1  0.40123457  0.78703704  0.11574074  1.0
  Ni  Ni60  1  0.73456790  0.12037037  0.11574074  1.0
  Ni  Ni61  1  0.73456790  0.45370370  0.11574074  1.0
  Ni  Ni62  1  0.73456790  0.78703704  0.11574074  1.0
  Ni  Ni63  1  0.32716049  0.23148148  0.17129630  1.0
  Ni  Ni64  1  0.32716049  0.56481481  0.17129630  1.0
  Ni  Ni65  1  0.32716049  0.89814815  0.17129630  1.0
  Ni  Ni66  1  0.66049383  0.23148148  0.17129630  1.0
  Ni  Ni67  1  0.66049383  0.56481481  0.17129630  1.0
  Ni  Ni68  1  0.66049383  0.89814815  0.17129630  1.0
  Ni  Ni69  1  0.99382716  0.23148148  0.17129630  1.0
  Ni  Ni70  1  0.99382716  0.56481481  0.17129630  1.0
  Ni  Ni71  1  0.99382716  0.89814815  0.17129630  1.0
  Ni  Ni72  1  0.00617284  0.10185185  0.32870370  1.0
  Ni  Ni73  1  0.00617284  0.43518519  0.32870370  1.0
  Ni  Ni74  1  0.00617284  0.76851852  0.32870370  1.0
  Ni  Ni75  1  0.33950617  0.10185185  0.32870370  1.0
  Ni  Ni76  1  0.33950617  0.43518519  0.32870370  1.0
  Ni  Ni77  1  0.33950617  0.76851852  0.32870370  1.0
  Ni  Ni78  1  0.67283951  0.10185185  0.32870370  1.0
  Ni  Ni79  1  0.67283951  0.43518519  0.32870370  1.0
  Ni  Ni80  1  0.67283951  0.76851852  0.32870370  1.0
  Ni  Ni81  1  0.08024691  0.32407407  0.27314815  1.0
  Ni  Ni82  1  0.08024691  0.65740741  0.27314815  1.0
  Ni  Ni83  1  0.08024691  0.99074074  0.27314815  1.0
  Ni  Ni84  1  0.41358025  0.32407407  0.27314815  1.0
  Ni  Ni85  1  0.41358025  0.65740741  0.27314815  1.0
  Ni  Ni86  1  0.41358025  0.99074074  0.27314815  1.0
  Ni  Ni87  1  0.74691358  0.32407407  0.27314815  1.0
  Ni  Ni88  1  0.74691358  0.65740741  0.27314815  1.0
  Ni  Ni89  1  0.74691358  0.99074074  0.27314815  1.0
  Ni  Ni90  1  0.25308642  0.00925926  0.22685185  1.0
  Ni  Ni91  1  0.25308642  0.34259259  0.22685185  1.0
  Ni  Ni92  1  0.25308642  0.67592593  0.22685185  1.0
  Ni  Ni93  1  0.58641975  0.00925926  0.22685185  1.0
  Ni  Ni94  1  0.58641975  0.34259259  0.22685185  1.0
  Ni  Ni95  1  0.58641975  0.67592593  0.22685185  1.0
  Ni  Ni96  1  0.91975309  0.00925926  0.22685185  1.0
  Ni  Ni97  1  0.91975309  0.34259259  0.22685185  1.0
  Ni  Ni98  1  0.91975309  0.67592593  0.22685185  1.0
  Ni  Ni99  1  0.17901235  0.12037037  0.28240741  1.0
  Ni  Ni100  1  0.17901235  0.45370370  0.28240741  1.0
  Ni  Ni101  1  0.17901235  0.78703704  0.28240741  1.0
  Ni  Ni102  1  0.51234568  0.12037037  0.28240741  1.0
  Ni  Ni103  1  0.51234568  0.45370370  0.28240741  1.0
  Ni  Ni104  1  0.51234568  0.78703704  0.28240741  1.0
  Ni  Ni105  1  0.84567901  0.12037037  0.28240741  1.0
  Ni  Ni106  1  0.84567901  0.45370370  0.28240741  1.0
  Ni  Ni107  1  0.84567901  0.78703704  0.28240741  1.0
  Ni  Ni108  1  0.19135802  0.32407407  0.43981481  1.0
  Ni  Ni109  1  0.19135802  0.65740741  0.43981481  1.0
  Ni  Ni110  1  0.19135802  0.99074074  0.43981481  1.0
  Ni  Ni111  1  0.52469136  0.32407407  0.43981481  1.0
  Ni  Ni112  1  0.52469136  0.65740741  0.43981481  1.0
  Ni  Ni113  1  0.52469136  0.99074074  0.43981481  1.0
  Ni  Ni114  1  0.85802469  0.32407407  0.43981481  1.0
  Ni  Ni115  1  0.85802469  0.65740741  0.43981481  1.0
  Ni  Ni116  1  0.85802469  0.99074074  0.43981481  1.0
  Ni  Ni117  1  0.26543210  0.21296296  0.38425926  1.0
  Ni  Ni118  1  0.26543210  0.54629630  0.38425926  1.0
  Ni  Ni119  1  0.26543210  0.87962963  0.38425926  1.0
  Ni  Ni120  1  0.59876543  0.21296296  0.38425926  1.0
  Ni  Ni121  1  0.59876543  0.54629630  0.38425926  1.0
  Ni  Ni122  1  0.59876543  0.87962963  0.38425926  1.0
  Ni  Ni123  1  0.93209877  0.21296296  0.38425926  1.0
  Ni  Ni124  1  0.93209877  0.54629630  0.38425926  1.0
  Ni  Ni125  1  0.93209877  0.87962963  0.38425926  1.0
  Ni  Ni126  1  0.10493827  0.23148148  0.33796296  1.0
  Ni  Ni127  1  0.10493827  0.56481481  0.33796296  1.0
  Ni  Ni128  1  0.10493827  0.89814815  0.33796296  1.0
  Ni  Ni129  1  0.43827160  0.23148148  0.33796296  1.0
  Ni  Ni130  1  0.43827160  0.56481481  0.33796296  1.0
  Ni  Ni131  1  0.43827160  0.89814815  0.33796296  1.0
  Ni  Ni132  1  0.77160494  0.23148148  0.33796296  1.0
  Ni  Ni133  1  0.77160494  0.56481481  0.33796296  1.0
  Ni  Ni134  1  0.77160494  0.89814815  0.33796296  1.0
  Ni  Ni135  1  0.03086420  0.00925926  0.39351852  1.0
  Ni  Ni136  1  0.03086420  0.34259259  0.39351852  1.0
  Ni  Ni137  1  0.03086420  0.67592593  0.39351852  1.0
  Ni  Ni138  1  0.36419753  0.00925926  0.39351852  1.0
  Ni  Ni139  1  0.36419753  0.34259259  0.39351852  1.0
  Ni  Ni140  1  0.36419753  0.67592593  0.39351852  1.0
  Ni  Ni141  1  0.69753086  0.00925926  0.39351852  1.0
  Ni  Ni142  1  0.69753086  0.34259259  0.39351852  1.0
  Ni  Ni143  1  0.69753086  0.67592593  0.39351852  1.0
  Zn  Zn144  1  0.04459074  0.04671056  0.05175444  1.0
  Zn  Zn145  1  0.04459074  0.38004389  0.05175444  1.0
  Zn  Zn146  1  0.04459074  0.71337722  0.05175444  1.0
  Zn  Zn147  1  0.37792407  0.04671056  0.05175444  1.0
  Zn  Zn148  1  0.37792407  0.38004389  0.05175444  1.0
  Zn  Zn149  1  0.37792407  0.71337722  0.05175444  1.0
  Zn  Zn150  1  0.71125741  0.04671056  0.05175444  1.0
  Zn  Zn151  1  0.71125741  0.38004389  0.05175444  1.0
  Zn  Zn152  1  0.71125741  0.71337722  0.05175444  1.0
  Zn  Zn153  1  0.30385000  0.15782167  0.10731000  1.0
  Zn  Zn154  1  0.30385000  0.49115500  0.10731000  1.0
  Zn  Zn155  1  0.30385000  0.82448833  0.10731000  1.0
  Zn  Zn156  1  0.63718333  0.15782167  0.10731000  1.0
  Zn  Zn157  1  0.63718333  0.49115500  0.10731000  1.0
  Zn  Zn158  1  0.63718333  0.82448833  0.10731000  1.0
  Zn  Zn159  1  0.97051667  0.15782167  0.10731000  1.0
  Zn  Zn160  1  0.97051667  0.49115500  0.10731000  1.0
  Zn  Zn161  1  0.97051667  0.82448833  0.10731000  1.0
  Zn  Zn162  1  0.17132056  0.10102333  0.07891083  1.0
  Zn  Zn163  1  0.17132056  0.43435667  0.07891083  1.0
  Zn  Zn164  1  0.17132056  0.76769000  0.07891083  1.0
  Zn  Zn165  1  0.50465389  0.10102333  0.07891083  1.0
  Zn  Zn166  1  0.50465389  0.43435667  0.07891083  1.0
  Zn  Zn167  1  0.50465389  0.76769000  0.07891083  1.0
  Zn  Zn168  1  0.83798722  0.10102333  0.07891083  1.0
  Zn  Zn169  1  0.83798722  0.43435667  0.07891083  1.0
  Zn  Zn170  1  0.83798722  0.76769000  0.07891083  1.0
  Zn  Zn171  1  0.24539463  0.32324556  0.02335528  1.0
  Zn  Zn172  1  0.24539463  0.65657889  0.02335528  1.0
  Zn  Zn173  1  0.24539463  0.98991222  0.02335528  1.0
  Zn  Zn174  1  0.57872796  0.32324556  0.02335528  1.0
  Zn  Zn175  1  0.57872796  0.65657889  0.02335528  1.0
  Zn  Zn176  1  0.57872796  0.98991222  0.02335528  1.0
  Zn  Zn177  1  0.91206130  0.32324556  0.02335528  1.0
  Zn  Zn178  1  0.91206130  0.65657889  0.02335528  1.0
  Zn  Zn179  1  0.91206130  0.98991222  0.02335528  1.0
  Zn  Zn180  1  0.24705167  0.15782167  0.02211250  1.0
  Zn  Zn181  1  0.24705167  0.49115500  0.02211250  1.0
  Zn  Zn182  1  0.24705167  0.82448833  0.02211250  1.0
  Zn  Zn183  1  0.58038500  0.15782167  0.02211250  1.0
  Zn  Zn184  1  0.58038500  0.49115500  0.02211250  1.0
  Zn  Zn185  1  0.58038500  0.82448833  0.02211250  1.0
  Zn  Zn186  1  0.91371833  0.15782167  0.02211250  1.0
  Zn  Zn187  1  0.91371833  0.49115500  0.02211250  1.0
  Zn  Zn188  1  0.91371833  0.82448833  0.02211250  1.0
  Zn  Zn189  1  0.17297759  0.26893278  0.07766806  1.0
  Zn  Zn190  1  0.17297759  0.60226611  0.07766806  1.0
  Zn  Zn191  1  0.17297759  0.93559944  0.07766806  1.0
  Zn  Zn192  1  0.50631093  0.26893278  0.07766806  1.0
  Zn  Zn193  1  0.50631093  0.60226611  0.07766806  1.0
  Zn  Zn194  1  0.50631093  0.93559944  0.07766806  1.0
  Zn  Zn195  1  0.83964426  0.26893278  0.07766806  1.0
  Zn  Zn196  1  0.83964426  0.60226611  0.07766806  1.0
  Zn  Zn197  1  0.83964426  0.93559944  0.07766806  1.0
  Zn  Zn198  1  0.14059444  0.17551167  0.05935667  1.0
  Zn  Zn199  1  0.14059444  0.50884500  0.05935667  1.0
  Zn  Zn200  1  0.14059444  0.84217833  0.05935667  1.0
  Zn  Zn201  1  0.47392778  0.17551167  0.05935667  1.0
  Zn  Zn202  1  0.47392778  0.50884500  0.05935667  1.0
  Zn  Zn203  1  0.47392778  0.84217833  0.05935667  1.0
  Zn  Zn204  1  0.80726111  0.17551167  0.05935667  1.0
  Zn  Zn205  1  0.80726111  0.50884500  0.05935667  1.0
  Zn  Zn206  1  0.80726111  0.84217833  0.05935667  1.0
  Zn  Zn207  1  0.21466852  0.06440056  0.00380111  1.0
  Zn  Zn208  1  0.21466852  0.39773389  0.00380111  1.0
  Zn  Zn209  1  0.21466852  0.73106722  0.00380111  1.0
  Zn  Zn210  1  0.54800185  0.06440056  0.00380111  1.0
  Zn  Zn211  1  0.54800185  0.39773389  0.00380111  1.0
  Zn  Zn212  1  0.54800185  0.73106722  0.00380111  1.0
  Zn  Zn213  1  0.88133519  0.06440056  0.00380111  1.0
  Zn  Zn214  1  0.88133519  0.39773389  0.00380111  1.0
  Zn  Zn215  1  0.88133519  0.73106722  0.00380111  1.0
  Zn  Zn216  1  0.01386463  0.12119889  0.03220028  1.0
  Zn  Zn217  1  0.01386463  0.45453222  0.03220028  1.0
  Zn  Zn218  1  0.01386463  0.78786556  0.03220028  1.0
  Zn  Zn219  1  0.34719796  0.12119889  0.03220028  1.0
  Zn  Zn220  1  0.34719796  0.45453222  0.03220028  1.0
  Zn  Zn221  1  0.34719796  0.78786556  0.03220028  1.0
  Zn  Zn222  1  0.68053130  0.12119889  0.03220028  1.0
  Zn  Zn223  1  0.68053130  0.45453222  0.03220028  1.0
  Zn  Zn224  1  0.68053130  0.78786556  0.03220028  1.0
  Zn  Zn225  1  0.27312389  0.23231000  0.08775583  1.0
  Zn  Zn226  1  0.27312389  0.56564333  0.08775583  1.0
  Zn  Zn227  1  0.27312389  0.89897667  0.08775583  1.0
  Zn  Zn228  1  0.60645722  0.23231000  0.08775583  1.0
  Zn  Zn229  1  0.60645722  0.56564333  0.08775583  1.0
  Zn  Zn230  1  0.60645722  0.89897667  0.08775583  1.0
  Zn  Zn231  1  0.93979056  0.23231000  0.08775583  1.0
  Zn  Zn232  1  0.93979056  0.56564333  0.08775583  1.0
  Zn  Zn233  1  0.93979056  0.89897667  0.08775583  1.0
  Zn  Zn234  1  0.27146685  0.06440056  0.08899861  1.0
  Zn  Zn235  1  0.27146685  0.39773389  0.08899861  1.0
  Zn  Zn236  1  0.27146685  0.73106722  0.08899861  1.0
  Zn  Zn237  1  0.60480019  0.06440056  0.08899861  1.0
  Zn  Zn238  1  0.60480019  0.39773389  0.08899861  1.0
  Zn  Zn239  1  0.60480019  0.73106722  0.08899861  1.0
  Zn  Zn240  1  0.93813352  0.06440056  0.08899861  1.0
  Zn  Zn241  1  0.93813352  0.39773389  0.08899861  1.0
  Zn  Zn242  1  0.93813352  0.73106722  0.08899861  1.0
  Zn  Zn243  1  0.01220759  0.28662278  0.03344306  1.0
  Zn  Zn244  1  0.01220759  0.61995611  0.03344306  1.0
  Zn  Zn245  1  0.01220759  0.95328944  0.03344306  1.0
  Zn  Zn246  1  0.34554093  0.28662278  0.03344306  1.0
  Zn  Zn247  1  0.34554093  0.61995611  0.03344306  1.0
  Zn  Zn248  1  0.34554093  0.95328944  0.03344306  1.0
  Zn  Zn249  1  0.67887426  0.28662278  0.03344306  1.0
  Zn  Zn250  1  0.67887426  0.61995611  0.03344306  1.0
  Zn  Zn251  1  0.67887426  0.95328944  0.03344306  1.0
  Zn  Zn252  1  0.22977593  0.26893278  0.16286556  1.0
  Zn  Zn253  1  0.22977593  0.60226611  0.16286556  1.0
  Zn  Zn254  1  0.22977593  0.93559944  0.16286556  1.0
  Zn  Zn255  1  0.56310926  0.26893278  0.16286556  1.0
  Zn  Zn256  1  0.56310926  0.60226611  0.16286556  1.0
  Zn  Zn257  1  0.56310926  0.93559944  0.16286556  1.0
  Zn  Zn258  1  0.89644259  0.26893278  0.16286556  1.0
  Zn  Zn259  1  0.89644259  0.60226611  0.16286556  1.0
  Zn  Zn260  1  0.89644259  0.93559944  0.16286556  1.0
  Zn  Zn261  1  0.15570185  0.04671056  0.21842111  1.0
  Zn  Zn262  1  0.15570185  0.38004389  0.21842111  1.0
  Zn  Zn263  1  0.15570185  0.71337722  0.21842111  1.0
  Zn  Zn264  1  0.48903519  0.04671056  0.21842111  1.0
  Zn  Zn265  1  0.48903519  0.38004389  0.21842111  1.0
  Zn  Zn266  1  0.48903519  0.71337722  0.21842111  1.0
  Zn  Zn267  1  0.82236852  0.04671056  0.21842111  1.0
  Zn  Zn268  1  0.82236852  0.38004389  0.21842111  1.0
  Zn  Zn269  1  0.82236852  0.71337722  0.21842111  1.0
  Zn  Zn270  1  0.02317241  0.32324556  0.19002194  1.0
  Zn  Zn271  1  0.02317241  0.65657889  0.19002194  1.0
  Zn  Zn272  1  0.02317241  0.98991222  0.19002194  1.0
  Zn  Zn273  1  0.35650574  0.32324556  0.19002194  1.0
  Zn  Zn274  1  0.35650574  0.65657889  0.19002194  1.0
  Zn  Zn275  1  0.35650574  0.98991222  0.19002194  1.0
  Zn  Zn276  1  0.68983907  0.32324556  0.19002194  1.0
  Zn  Zn277  1  0.68983907  0.65657889  0.19002194  1.0
  Zn  Zn278  1  0.68983907  0.98991222  0.19002194  1.0
  Zn  Zn279  1  0.09724648  0.21213444  0.13446639  1.0
  Zn  Zn280  1  0.09724648  0.54546778  0.13446639  1.0
  Zn  Zn281  1  0.09724648  0.87880111  0.13446639  1.0
  Zn  Zn282  1  0.43057981  0.21213444  0.13446639  1.0
  Zn  Zn283  1  0.43057981  0.54546778  0.13446639  1.0
  Zn  Zn284  1  0.43057981  0.87880111  0.13446639  1.0
  Zn  Zn285  1  0.76391315  0.21213444  0.13446639  1.0
  Zn  Zn286  1  0.76391315  0.54546778  0.13446639  1.0
  Zn  Zn287  1  0.76391315  0.87880111  0.13446639  1.0
  Zn  Zn288  1  0.09890352  0.04671056  0.13322361  1.0
  Zn  Zn289  1  0.09890352  0.38004389  0.13322361  1.0
  Zn  Zn290  1  0.09890352  0.71337722  0.13322361  1.0
  Zn  Zn291  1  0.43223685  0.04671056  0.13322361  1.0
  Zn  Zn292  1  0.43223685  0.38004389  0.13322361  1.0
  Zn  Zn293  1  0.43223685  0.71337722  0.13322361  1.0
  Zn  Zn294  1  0.76557019  0.04671056  0.13322361  1.0
  Zn  Zn295  1  0.76557019  0.38004389  0.13322361  1.0
  Zn  Zn296  1  0.76557019  0.71337722  0.13322361  1.0
  Zn  Zn297  1  0.02482944  0.15782167  0.18877917  1.0
  Zn  Zn298  1  0.02482944  0.49115500  0.18877917  1.0
  Zn  Zn299  1  0.02482944  0.82448833  0.18877917  1.0
  Zn  Zn300  1  0.35816278  0.15782167  0.18877917  1.0
  Zn  Zn301  1  0.35816278  0.49115500  0.18877917  1.0
  Zn  Zn302  1  0.35816278  0.82448833  0.18877917  1.0
  Zn  Zn303  1  0.69149611  0.15782167  0.18877917  1.0
  Zn  Zn304  1  0.69149611  0.49115500  0.18877917  1.0
  Zn  Zn305  1  0.69149611  0.82448833  0.18877917  1.0
  Zn  Zn306  1  0.32577963  0.06440056  0.17046778  1.0
  Zn  Zn307  1  0.32577963  0.39773389  0.17046778  1.0
  Zn  Zn308  1  0.32577963  0.73106722  0.17046778  1.0
  Zn  Zn309  1  0.65911296  0.06440056  0.17046778  1.0
  Zn  Zn310  1  0.65911296  0.39773389  0.17046778  1.0
  Zn  Zn311  1  0.65911296  0.73106722  0.17046778  1.0
  Zn  Zn312  1  0.99244630  0.06440056  0.17046778  1.0
  Zn  Zn313  1  0.99244630  0.39773389  0.17046778  1.0
  Zn  Zn314  1  0.99244630  0.73106722  0.17046778  1.0
  Zn  Zn315  1  0.06652037  0.28662278  0.11491222  1.0
  Zn  Zn316  1  0.06652037  0.61995611  0.11491222  1.0
  Zn  Zn317  1  0.06652037  0.95328944  0.11491222  1.0
  Zn  Zn318  1  0.39985370  0.28662278  0.11491222  1.0
  Zn  Zn319  1  0.39985370  0.61995611  0.11491222  1.0
  Zn  Zn320  1  0.39985370  0.95328944  0.11491222  1.0
  Zn  Zn321  1  0.73318704  0.28662278  0.11491222  1.0
  Zn  Zn322  1  0.73318704  0.61995611  0.11491222  1.0
  Zn  Zn323  1  0.73318704  0.95328944  0.11491222  1.0
  Zn  Zn324  1  0.19904981  0.01008778  0.14331139  1.0
  Zn  Zn325  1  0.19904981  0.34342111  0.14331139  1.0
  Zn  Zn326  1  0.19904981  0.67675444  0.14331139  1.0
  Zn  Zn327  1  0.53238315  0.01008778  0.14331139  1.0
  Zn  Zn328  1  0.53238315  0.34342111  0.14331139  1.0
  Zn  Zn329  1  0.53238315  0.67675444  0.14331139  1.0
  Zn  Zn330  1  0.86571648  0.01008778  0.14331139  1.0
  Zn  Zn331  1  0.86571648  0.34342111  0.14331139  1.0
  Zn  Zn332  1  0.86571648  0.67675444  0.14331139  1.0
  Zn  Zn333  1  0.12497574  0.12119889  0.19886694  1.0
  Zn  Zn334  1  0.12497574  0.45453222  0.19886694  1.0
  Zn  Zn335  1  0.12497574  0.78786556  0.19886694  1.0
  Zn  Zn336  1  0.45830907  0.12119889  0.19886694  1.0
  Zn  Zn337  1  0.45830907  0.45453222  0.19886694  1.0
  Zn  Zn338  1  0.45830907  0.78786556  0.19886694  1.0
  Zn  Zn339  1  0.79164241  0.12119889  0.19886694  1.0
  Zn  Zn340  1  0.79164241  0.45453222  0.19886694  1.0
  Zn  Zn341  1  0.79164241  0.78786556  0.19886694  1.0
  Zn  Zn342  1  0.12331870  0.28662278  0.20010972  1.0
  Zn  Zn343  1  0.12331870  0.61995611  0.20010972  1.0
  Zn  Zn344  1  0.12331870  0.95328944  0.20010972  1.0
  Zn  Zn345  1  0.45665204  0.28662278  0.20010972  1.0
  Zn  Zn346  1  0.45665204  0.61995611  0.20010972  1.0
  Zn  Zn347  1  0.45665204  0.95328944  0.20010972  1.0
  Zn  Zn348  1  0.78998537  0.28662278  0.20010972  1.0
  Zn  Zn349  1  0.78998537  0.61995611  0.20010972  1.0
  Zn  Zn350  1  0.78998537  0.95328944  0.20010972  1.0
  Zn  Zn351  1  0.19739278  0.17551167  0.14455417  1.0
  Zn  Zn352  1  0.19739278  0.50884500  0.14455417  1.0
  Zn  Zn353  1  0.19739278  0.84217833  0.14455417  1.0
  Zn  Zn354  1  0.53072611  0.17551167  0.14455417  1.0
  Zn  Zn355  1  0.53072611  0.50884500  0.14455417  1.0
  Zn  Zn356  1  0.53072611  0.84217833  0.14455417  1.0
  Zn  Zn357  1  0.86405944  0.17551167  0.14455417  1.0
  Zn  Zn358  1  0.86405944  0.50884500  0.14455417  1.0
  Zn  Zn359  1  0.86405944  0.84217833  0.14455417  1.0
  Zn  Zn360  1  0.08162778  0.15782167  0.27397667  1.0
  Zn  Zn361  1  0.08162778  0.49115500  0.27397667  1.0
  Zn  Zn362  1  0.08162778  0.82448833  0.27397667  1.0
  Zn  Zn363  1  0.41496111  0.15782167  0.27397667  1.0
  Zn  Zn364  1  0.41496111  0.49115500  0.27397667  1.0
  Zn  Zn365  1  0.41496111  0.82448833  0.27397667  1.0
  Zn  Zn366  1  0.74829444  0.15782167  0.27397667  1.0
  Zn  Zn367  1  0.74829444  0.49115500  0.27397667  1.0
  Zn  Zn368  1  0.74829444  0.82448833  0.27397667  1.0
  Zn  Zn369  1  0.00755370  0.26893278  0.32953222  1.0
  Zn  Zn370  1  0.00755370  0.60226611  0.32953222  1.0
  Zn  Zn371  1  0.00755370  0.93559944  0.32953222  1.0
  Zn  Zn372  1  0.34088704  0.26893278  0.32953222  1.0
  Zn  Zn373  1  0.34088704  0.60226611  0.32953222  1.0
  Zn  Zn374  1  0.34088704  0.93559944  0.32953222  1.0
  Zn  Zn375  1  0.67422037  0.26893278  0.32953222  1.0
  Zn  Zn376  1  0.67422037  0.60226611  0.32953222  1.0
  Zn  Zn377  1  0.67422037  0.93559944  0.32953222  1.0
  Zn  Zn378  1  0.20835759  0.21213444  0.30113306  1.0
  Zn  Zn379  1  0.20835759  0.54546778  0.30113306  1.0
  Zn  Zn380  1  0.20835759  0.87880111  0.30113306  1.0
  Zn  Zn381  1  0.54169093  0.21213444  0.30113306  1.0
  Zn  Zn382  1  0.54169093  0.54546778  0.30113306  1.0
  Zn  Zn383  1  0.54169093  0.87880111  0.30113306  1.0
  Zn  Zn384  1  0.87502426  0.21213444  0.30113306  1.0
  Zn  Zn385  1  0.87502426  0.54546778  0.30113306  1.0
  Zn  Zn386  1  0.87502426  0.87880111  0.30113306  1.0
  Zn  Zn387  1  0.28243167  0.10102333  0.24557750  1.0
  Zn  Zn388  1  0.28243167  0.43435667  0.24557750  1.0
  Zn  Zn389  1  0.28243167  0.76769000  0.24557750  1.0
  Zn  Zn390  1  0.61576500  0.10102333  0.24557750  1.0
  Zn  Zn391  1  0.61576500  0.43435667  0.24557750  1.0
  Zn  Zn392  1  0.61576500  0.76769000  0.24557750  1.0
  Zn  Zn393  1  0.94909833  0.10102333  0.24557750  1.0
  Zn  Zn394  1  0.94909833  0.43435667  0.24557750  1.0
  Zn  Zn395  1  0.94909833  0.76769000  0.24557750  1.0
  Zn  Zn396  1  0.28408870  0.26893278  0.24433472  1.0
  Zn  Zn397  1  0.28408870  0.60226611  0.24433472  1.0
  Zn  Zn398  1  0.28408870  0.93559944  0.24433472  1.0
  Zn  Zn399  1  0.61742204  0.26893278  0.24433472  1.0
  Zn  Zn400  1  0.61742204  0.60226611  0.24433472  1.0
  Zn  Zn401  1  0.61742204  0.93559944  0.24433472  1.0
  Zn  Zn402  1  0.95075537  0.26893278  0.24433472  1.0
  Zn  Zn403  1  0.95075537  0.60226611  0.24433472  1.0
  Zn  Zn404  1  0.95075537  0.93559944  0.24433472  1.0
  Zn  Zn405  1  0.21001463  0.04671056  0.29989028  1.0
  Zn  Zn406  1  0.21001463  0.38004389  0.29989028  1.0
  Zn  Zn407  1  0.21001463  0.71337722  0.29989028  1.0
  Zn  Zn408  1  0.54334796  0.04671056  0.29989028  1.0
  Zn  Zn409  1  0.54334796  0.38004389  0.29989028  1.0
  Zn  Zn410  1  0.54334796  0.71337722  0.29989028  1.0
  Zn  Zn411  1  0.87668130  0.04671056  0.29989028  1.0
  Zn  Zn412  1  0.87668130  0.38004389  0.29989028  1.0
  Zn  Zn413  1  0.87668130  0.71337722  0.29989028  1.0
  Zn  Zn414  1  0.17763148  0.28662278  0.28157889  1.0
  Zn  Zn415  1  0.17763148  0.61995611  0.28157889  1.0
  Zn  Zn416  1  0.17763148  0.95328944  0.28157889  1.0
  Zn  Zn417  1  0.51096481  0.28662278  0.28157889  1.0
  Zn  Zn418  1  0.51096481  0.61995611  0.28157889  1.0
  Zn  Zn419  1  0.51096481  0.95328944  0.28157889  1.0
  Zn  Zn420  1  0.84429815  0.28662278  0.28157889  1.0
  Zn  Zn421  1  0.84429815  0.61995611  0.28157889  1.0
  Zn  Zn422  1  0.84429815  0.95328944  0.28157889  1.0
  Zn  Zn423  1  0.25170556  0.17551167  0.22602333  1.0
  Zn  Zn424  1  0.25170556  0.50884500  0.22602333  1.0
  Zn  Zn425  1  0.25170556  0.84217833  0.22602333  1.0
  Zn  Zn426  1  0.58503889  0.17551167  0.22602333  1.0
  Zn  Zn427  1  0.58503889  0.50884500  0.22602333  1.0
  Zn  Zn428  1  0.58503889  0.84217833  0.22602333  1.0
  Zn  Zn429  1  0.91837222  0.17551167  0.22602333  1.0
  Zn  Zn430  1  0.91837222  0.50884500  0.22602333  1.0
  Zn  Zn431  1  0.91837222  0.84217833  0.22602333  1.0
  Zn  Zn432  1  0.05090167  0.23231000  0.25442250  1.0
  Zn  Zn433  1  0.05090167  0.56564333  0.25442250  1.0
  Zn  Zn434  1  0.05090167  0.89897667  0.25442250  1.0
  Zn  Zn435  1  0.38423500  0.23231000  0.25442250  1.0
  Zn  Zn436  1  0.38423500  0.56564333  0.25442250  1.0
  Zn  Zn437  1  0.38423500  0.89897667  0.25442250  1.0
  Zn  Zn438  1  0.71756833  0.23231000  0.25442250  1.0
  Zn  Zn439  1  0.71756833  0.56564333  0.25442250  1.0
  Zn  Zn440  1  0.71756833  0.89897667  0.25442250  1.0
  Zn  Zn441  1  0.31016093  0.01008778  0.30997806  1.0
  Zn  Zn442  1  0.31016093  0.34342111  0.30997806  1.0
  Zn  Zn443  1  0.31016093  0.67675444  0.30997806  1.0
  Zn  Zn444  1  0.64349426  0.01008778  0.30997806  1.0
  Zn  Zn445  1  0.64349426  0.34342111  0.30997806  1.0
  Zn  Zn446  1  0.64349426  0.67675444  0.30997806  1.0
  Zn  Zn447  1  0.97682759  0.01008778  0.30997806  1.0
  Zn  Zn448  1  0.97682759  0.34342111  0.30997806  1.0
  Zn  Zn449  1  0.97682759  0.67675444  0.30997806  1.0
  Zn  Zn450  1  0.30850389  0.17551167  0.31122083  1.0
  Zn  Zn451  1  0.30850389  0.50884500  0.31122083  1.0
  Zn  Zn452  1  0.30850389  0.84217833  0.31122083  1.0
  Zn  Zn453  1  0.64183722  0.17551167  0.31122083  1.0
  Zn  Zn454  1  0.64183722  0.50884500  0.31122083  1.0
  Zn  Zn455  1  0.64183722  0.84217833  0.31122083  1.0
  Zn  Zn456  1  0.97517056  0.17551167  0.31122083  1.0
  Zn  Zn457  1  0.97517056  0.50884500  0.31122083  1.0
  Zn  Zn458  1  0.97517056  0.84217833  0.31122083  1.0
  Zn  Zn459  1  0.04924463  0.06440056  0.25566528  1.0
  Zn  Zn460  1  0.04924463  0.39773389  0.25566528  1.0
  Zn  Zn461  1  0.04924463  0.73106722  0.25566528  1.0
  Zn  Zn462  1  0.38257796  0.06440056  0.25566528  1.0
  Zn  Zn463  1  0.38257796  0.39773389  0.25566528  1.0
  Zn  Zn464  1  0.38257796  0.73106722  0.25566528  1.0
  Zn  Zn465  1  0.71591130  0.06440056  0.25566528  1.0
  Zn  Zn466  1  0.71591130  0.39773389  0.25566528  1.0
  Zn  Zn467  1  0.71591130  0.73106722  0.25566528  1.0
  Zn  Zn468  1  0.26681296  0.04671056  0.38508778  1.0
  Zn  Zn469  1  0.26681296  0.38004389  0.38508778  1.0
  Zn  Zn470  1  0.26681296  0.71337722  0.38508778  1.0
  Zn  Zn471  1  0.60014630  0.04671056  0.38508778  1.0
  Zn  Zn472  1  0.60014630  0.38004389  0.38508778  1.0
  Zn  Zn473  1  0.60014630  0.71337722  0.38508778  1.0
  Zn  Zn474  1  0.93347963  0.04671056  0.38508778  1.0
  Zn  Zn475  1  0.93347963  0.38004389  0.38508778  1.0
  Zn  Zn476  1  0.93347963  0.71337722  0.38508778  1.0
  Zn  Zn477  1  0.19273889  0.15782167  0.44064333  1.0
  Zn  Zn478  1  0.19273889  0.49115500  0.44064333  1.0
  Zn  Zn479  1  0.19273889  0.82448833  0.44064333  1.0
  Zn  Zn480  1  0.52607222  0.15782167  0.44064333  1.0
  Zn  Zn481  1  0.52607222  0.49115500  0.44064333  1.0
  Zn  Zn482  1  0.52607222  0.82448833  0.44064333  1.0
  Zn  Zn483  1  0.85940556  0.15782167  0.44064333  1.0
  Zn  Zn484  1  0.85940556  0.49115500  0.44064333  1.0
  Zn  Zn485  1  0.85940556  0.82448833  0.44064333  1.0
  Zn  Zn486  1  0.06020944  0.10102333  0.41224417  1.0
  Zn  Zn487  1  0.06020944  0.43435667  0.41224417  1.0
  Zn  Zn488  1  0.06020944  0.76769000  0.41224417  1.0
  Zn  Zn489  1  0.39354278  0.10102333  0.41224417  1.0
  Zn  Zn490  1  0.39354278  0.43435667  0.41224417  1.0
  Zn  Zn491  1  0.39354278  0.76769000  0.41224417  1.0
  Zn  Zn492  1  0.72687611  0.10102333  0.41224417  1.0
  Zn  Zn493  1  0.72687611  0.43435667  0.41224417  1.0
  Zn  Zn494  1  0.72687611  0.76769000  0.41224417  1.0
  Zn  Zn495  1  0.13428352  0.32324556  0.35668861  1.0
  Zn  Zn496  1  0.13428352  0.65657889  0.35668861  1.0
  Zn  Zn497  1  0.13428352  0.98991222  0.35668861  1.0
  Zn  Zn498  1  0.46761685  0.32324556  0.35668861  1.0
  Zn  Zn499  1  0.46761685  0.65657889  0.35668861  1.0
  Zn  Zn500  1  0.46761685  0.98991222  0.35668861  1.0
  Zn  Zn501  1  0.80095019  0.32324556  0.35668861  1.0
  Zn  Zn502  1  0.80095019  0.65657889  0.35668861  1.0
  Zn  Zn503  1  0.80095019  0.98991222  0.35668861  1.0
  Zn  Zn504  1  0.13594056  0.15782167  0.35544583  1.0
  Zn  Zn505  1  0.13594056  0.49115500  0.35544583  1.0
  Zn  Zn506  1  0.13594056  0.82448833  0.35544583  1.0
  Zn  Zn507  1  0.46927389  0.15782167  0.35544583  1.0
  Zn  Zn508  1  0.46927389  0.49115500  0.35544583  1.0
  Zn  Zn509  1  0.46927389  0.82448833  0.35544583  1.0
  Zn  Zn510  1  0.80260722  0.15782167  0.35544583  1.0
  Zn  Zn511  1  0.80260722  0.49115500  0.35544583  1.0
  Zn  Zn512  1  0.80260722  0.82448833  0.35544583  1.0
  Zn  Zn513  1  0.06186648  0.26893278  0.41100139  1.0
  Zn  Zn514  1  0.06186648  0.60226611  0.41100139  1.0
  Zn  Zn515  1  0.06186648  0.93559944  0.41100139  1.0
  Zn  Zn516  1  0.39519981  0.26893278  0.41100139  1.0
  Zn  Zn517  1  0.39519981  0.60226611  0.41100139  1.0
  Zn  Zn518  1  0.39519981  0.93559944  0.41100139  1.0
  Zn  Zn519  1  0.72853315  0.26893278  0.41100139  1.0
  Zn  Zn520  1  0.72853315  0.60226611  0.41100139  1.0
  Zn  Zn521  1  0.72853315  0.93559944  0.41100139  1.0
  Zn  Zn522  1  0.02948333  0.17551167  0.39269000  1.0
  Zn  Zn523  1  0.02948333  0.50884500  0.39269000  1.0
  Zn  Zn524  1  0.02948333  0.84217833  0.39269000  1.0
  Zn  Zn525  1  0.36281667  0.17551167  0.39269000  1.0
  Zn  Zn526  1  0.36281667  0.50884500  0.39269000  1.0
  Zn  Zn527  1  0.36281667  0.84217833  0.39269000  1.0
  Zn  Zn528  1  0.69615000  0.17551167  0.39269000  1.0
  Zn  Zn529  1  0.69615000  0.50884500  0.39269000  1.0
  Zn  Zn530  1  0.69615000  0.84217833  0.39269000  1.0
  Zn  Zn531  1  0.10355741  0.06440056  0.33713444  1.0
  Zn  Zn532  1  0.10355741  0.39773389  0.33713444  1.0
  Zn  Zn533  1  0.10355741  0.73106722  0.33713444  1.0
  Zn  Zn534  1  0.43689074  0.06440056  0.33713444  1.0
  Zn  Zn535  1  0.43689074  0.39773389  0.33713444  1.0
  Zn  Zn536  1  0.43689074  0.73106722  0.33713444  1.0
  Zn  Zn537  1  0.77022407  0.06440056  0.33713444  1.0
  Zn  Zn538  1  0.77022407  0.39773389  0.33713444  1.0
  Zn  Zn539  1  0.77022407  0.73106722  0.33713444  1.0
  Zn  Zn540  1  0.23608685  0.12119889  0.36553361  1.0
  Zn  Zn541  1  0.23608685  0.45453222  0.36553361  1.0
  Zn  Zn542  1  0.23608685  0.78786556  0.36553361  1.0
  Zn  Zn543  1  0.56942019  0.12119889  0.36553361  1.0
  Zn  Zn544  1  0.56942019  0.45453222  0.36553361  1.0
  Zn  Zn545  1  0.56942019  0.78786556  0.36553361  1.0
  Zn  Zn546  1  0.90275352  0.12119889  0.36553361  1.0
  Zn  Zn547  1  0.90275352  0.45453222  0.36553361  1.0
  Zn  Zn548  1  0.90275352  0.78786556  0.36553361  1.0
  Zn  Zn549  1  0.16201278  0.23231000  0.42108917  1.0
  Zn  Zn550  1  0.16201278  0.56564333  0.42108917  1.0
  Zn  Zn551  1  0.16201278  0.89897667  0.42108917  1.0
  Zn  Zn552  1  0.49534611  0.23231000  0.42108917  1.0
  Zn  Zn553  1  0.49534611  0.56564333  0.42108917  1.0
  Zn  Zn554  1  0.49534611  0.89897667  0.42108917  1.0
  Zn  Zn555  1  0.82867944  0.23231000  0.42108917  1.0
  Zn  Zn556  1  0.82867944  0.56564333  0.42108917  1.0
  Zn  Zn557  1  0.82867944  0.89897667  0.42108917  1.0
  Zn  Zn558  1  0.16035574  0.06440056  0.42233194  1.0
  Zn  Zn559  1  0.16035574  0.39773389  0.42233194  1.0
  Zn  Zn560  1  0.16035574  0.73106722  0.42233194  1.0
  Zn  Zn561  1  0.49368907  0.06440056  0.42233194  1.0
  Zn  Zn562  1  0.49368907  0.39773389  0.42233194  1.0
  Zn  Zn563  1  0.49368907  0.73106722  0.42233194  1.0
  Zn  Zn564  1  0.82702241  0.06440056  0.42233194  1.0
  Zn  Zn565  1  0.82702241  0.39773389  0.42233194  1.0
  Zn  Zn566  1  0.82702241  0.73106722  0.42233194  1.0
  Zn  Zn567  1  0.23442981  0.28662278  0.36677639  1.0
  Zn  Zn568  1  0.23442981  0.61995611  0.36677639  1.0
  Zn  Zn569  1  0.23442981  0.95328944  0.36677639  1.0
  Zn  Zn570  1  0.56776315  0.28662278  0.36677639  1.0
  Zn  Zn571  1  0.56776315  0.61995611  0.36677639  1.0
  Zn  Zn572  1  0.56776315  0.95328944  0.36677639  1.0
  Zn  Zn573  1  0.90109648  0.28662278  0.36677639  1.0
  Zn  Zn574  1  0.90109648  0.61995611  0.36677639  1.0
  Zn  Zn575  1  0.90109648  0.95328944  0.36677639  1.0
