# generated using pymatgen
data_Zn3Ni
_symmetry_space_group_name_H-M   'P 1'
_cell_length_a   27.66164665
_cell_length_b   30.26936238
_cell_length_c   53.23486380
_cell_angle_alpha   74.70400212
_cell_angle_beta   30.00000000
_cell_angle_gamma   62.81115013
_symmetry_Int_Tables_number   1
_chemical_formula_structural   Zn3Ni
_chemical_formula_sum   'Zn432 Ni144'
_cell_volume   18932.31052995
_cell_formula_units_Z   144
loop_
 _symmetry_equiv_pos_site_id
 _symmetry_equiv_pos_as_xyz
  1  'x, y, z'
loop_
 _atom_site_type_symbol
 _atom_site_label
 _atom_site_symmetry_multiplicity
 _atom_site_fract_x
 _atom_site_fract_y
 _atom_site_fract_z
 _atom_site_occupancy
  Zn  Zn0  1  0.06820167  0.20833333  0.01361850  1.0
  Zn  Zn1  1  0.06820167  0.54166667  0.01361850  1.0
  Zn  Zn2  1  0.06820167  0.87500000  0.01361850  1.0
  Zn  Zn3  1  0.40153500  0.20833333  0.01361850  1.0
  Zn  Zn4  1  0.40153500  0.54166667  0.01361850  1.0
  Zn  Zn5  1  0.40153500  0.87500000  0.01361850  1.0
  Zn  Zn6  1  0.73486833  0.20833333  0.01361850  1.0
  Zn  Zn7  1  0.73486833  0.54166667  0.01361850  1.0
  Zn  Zn8  1  0.73486833  0.87500000  0.01361850  1.0
  Zn  Zn9  1  0.23486833  0.04166667  0.06361850  1.0
  Zn  Zn10  1  0.23486833  0.37500000  0.06361850  1.0
  Zn  Zn11  1  0.23486833  0.70833333  0.06361850  1.0
  Zn  Zn12  1  0.56820167  0.04166667  0.06361850  1.0
  Zn  Zn13  1  0.56820167  0.37500000  0.06361850  1.0
  Zn  Zn14  1  0.56820167  0.70833333  0.06361850  1.0
  Zn  Zn15  1  0.90153500  0.04166667  0.06361850  1.0
  Zn  Zn16  1  0.90153500  0.37500000  0.06361850  1.0
  Zn  Zn17  1  0.90153500  0.70833333  0.06361850  1.0
  Zn  Zn18  1  0.06820167  0.20833333  0.06250000  1.0
  Zn  Zn19  1  0.06820167  0.54166667  0.06250000  1.0
  Zn  Zn20  1  0.06820167  0.87500000  0.06250000  1.0
  Zn  Zn21  1  0.40153500  0.20833333  0.06250000  1.0
  Zn  Zn22  1  0.40153500  0.54166667  0.06250000  1.0
  Zn  Zn23  1  0.40153500  0.87500000  0.06250000  1.0
  Zn  Zn24  1  0.73486833  0.20833333  0.06250000  1.0
  Zn  Zn25  1  0.73486833  0.54166667  0.06250000  1.0
  Zn  Zn26  1  0.73486833  0.87500000  0.06250000  1.0
  Zn  Zn27  1  0.23486833  0.04166667  0.01250000  1.0
  Zn  Zn28  1  0.23486833  0.37500000  0.01250000  1.0
  Zn  Zn29  1  0.23486833  0.70833333  0.01250000  1.0
  Zn  Zn30  1  0.56820167  0.04166667  0.01250000  1.0
  Zn  Zn31  1  0.56820167  0.37500000  0.01250000  1.0
  Zn  Zn32  1  0.56820167  0.70833333  0.01250000  1.0
  Zn  Zn33  1  0.90153500  0.04166667  0.01250000  1.0
  Zn  Zn34  1  0.90153500  0.37500000  0.01250000  1.0
  Zn  Zn35  1  0.90153500  0.70833333  0.01250000  1.0
  Zn  Zn36  1  0.23859667  0.20833333  0.01138150  1.0
  Zn  Zn37  1  0.23859667  0.54166667  0.01138150  1.0
  Zn  Zn38  1  0.23859667  0.87500000  0.01138150  1.0
  Zn  Zn39  1  0.57193000  0.20833333  0.01138150  1.0
  Zn  Zn40  1  0.57193000  0.54166667  0.01138150  1.0
  Zn  Zn41  1  0.57193000  0.87500000  0.01138150  1.0
  Zn  Zn42  1  0.90526333  0.20833333  0.01138150  1.0
  Zn  Zn43  1  0.90526333  0.54166667  0.01138150  1.0
  Zn  Zn44  1  0.90526333  0.87500000  0.01138150  1.0
  Zn  Zn45  1  0.07193000  0.04166667  0.06138150  1.0
  Zn  Zn46  1  0.07193000  0.37500000  0.06138150  1.0
  Zn  Zn47  1  0.07193000  0.70833333  0.06138150  1.0
  Zn  Zn48  1  0.40526333  0.04166667  0.06138150  1.0
  Zn  Zn49  1  0.40526333  0.37500000  0.06138150  1.0
  Zn  Zn50  1  0.40526333  0.70833333  0.06138150  1.0
  Zn  Zn51  1  0.73859667  0.04166667  0.06138150  1.0
  Zn  Zn52  1  0.73859667  0.37500000  0.06138150  1.0
  Zn  Zn53  1  0.73859667  0.70833333  0.06138150  1.0
  Zn  Zn54  1  0.09846500  0.29166667  0.03638150  1.0
  Zn  Zn55  1  0.09846500  0.62500000  0.03638150  1.0
  Zn  Zn56  1  0.09846500  0.95833333  0.03638150  1.0
  Zn  Zn57  1  0.43179833  0.29166667  0.03638150  1.0
  Zn  Zn58  1  0.43179833  0.62500000  0.03638150  1.0
  Zn  Zn59  1  0.43179833  0.95833333  0.03638150  1.0
  Zn  Zn60  1  0.76513167  0.29166667  0.03638150  1.0
  Zn  Zn61  1  0.76513167  0.62500000  0.03638150  1.0
  Zn  Zn62  1  0.76513167  0.95833333  0.03638150  1.0
  Zn  Zn63  1  0.26513167  0.12500000  0.08638150  1.0
  Zn  Zn64  1  0.26513167  0.45833333  0.08638150  1.0
  Zn  Zn65  1  0.26513167  0.79166667  0.08638150  1.0
  Zn  Zn66  1  0.59846500  0.12500000  0.08638150  1.0
  Zn  Zn67  1  0.59846500  0.45833333  0.08638150  1.0
  Zn  Zn68  1  0.59846500  0.79166667  0.08638150  1.0
  Zn  Zn69  1  0.93179833  0.12500000  0.08638150  1.0
  Zn  Zn70  1  0.93179833  0.45833333  0.08638150  1.0
  Zn  Zn71  1  0.93179833  0.79166667  0.08638150  1.0
  Zn  Zn72  1  0.09846500  0.29166667  0.08750000  1.0
  Zn  Zn73  1  0.09846500  0.62500000  0.08750000  1.0
  Zn  Zn74  1  0.09846500  0.95833333  0.08750000  1.0
  Zn  Zn75  1  0.43179833  0.29166667  0.08750000  1.0
  Zn  Zn76  1  0.43179833  0.62500000  0.08750000  1.0
  Zn  Zn77  1  0.43179833  0.95833333  0.08750000  1.0
  Zn  Zn78  1  0.76513167  0.29166667  0.08750000  1.0
  Zn  Zn79  1  0.76513167  0.62500000  0.08750000  1.0
  Zn  Zn80  1  0.76513167  0.95833333  0.08750000  1.0
  Zn  Zn81  1  0.26513167  0.12500000  0.03750000  1.0
  Zn  Zn82  1  0.26513167  0.45833333  0.03750000  1.0
  Zn  Zn83  1  0.26513167  0.79166667  0.03750000  1.0
  Zn  Zn84  1  0.59846500  0.12500000  0.03750000  1.0
  Zn  Zn85  1  0.59846500  0.45833333  0.03750000  1.0
  Zn  Zn86  1  0.59846500  0.79166667  0.03750000  1.0
  Zn  Zn87  1  0.93179833  0.12500000  0.03750000  1.0
  Zn  Zn88  1  0.93179833  0.45833333  0.03750000  1.0
  Zn  Zn89  1  0.93179833  0.79166667  0.03750000  1.0
  Zn  Zn90  1  0.26140333  0.29166667  0.03861850  1.0
  Zn  Zn91  1  0.26140333  0.62500000  0.03861850  1.0
  Zn  Zn92  1  0.26140333  0.95833333  0.03861850  1.0
  Zn  Zn93  1  0.59473667  0.29166667  0.03861850  1.0
  Zn  Zn94  1  0.59473667  0.62500000  0.03861850  1.0
  Zn  Zn95  1  0.59473667  0.95833333  0.03861850  1.0
  Zn  Zn96  1  0.92807000  0.29166667  0.03861850  1.0
  Zn  Zn97  1  0.92807000  0.62500000  0.03861850  1.0
  Zn  Zn98  1  0.92807000  0.95833333  0.03861850  1.0
  Zn  Zn99  1  0.09473667  0.12500000  0.08861850  1.0
  Zn  Zn100  1  0.09473667  0.45833333  0.08861850  1.0
  Zn  Zn101  1  0.09473667  0.79166667  0.08861850  1.0
  Zn  Zn102  1  0.42807000  0.12500000  0.08861850  1.0
  Zn  Zn103  1  0.42807000  0.45833333  0.08861850  1.0
  Zn  Zn104  1  0.42807000  0.79166667  0.08861850  1.0
  Zn  Zn105  1  0.76140333  0.12500000  0.08861850  1.0
  Zn  Zn106  1  0.76140333  0.45833333  0.08861850  1.0
  Zn  Zn107  1  0.76140333  0.79166667  0.08861850  1.0
  Ni  Ni108  1  0.23611111  0.20833333  0.06250000  1.0
  Ni  Ni109  1  0.23611111  0.54166667  0.06250000  1.0
  Ni  Ni110  1  0.23611111  0.87500000  0.06250000  1.0
  Ni  Ni111  1  0.56944444  0.20833333  0.06250000  1.0
  Ni  Ni112  1  0.56944444  0.54166667  0.06250000  1.0
  Ni  Ni113  1  0.56944444  0.87500000  0.06250000  1.0
  Ni  Ni114  1  0.90277778  0.20833333  0.06250000  1.0
  Ni  Ni115  1  0.90277778  0.54166667  0.06250000  1.0
  Ni  Ni116  1  0.90277778  0.87500000  0.06250000  1.0
  Ni  Ni117  1  0.06944444  0.04166667  0.01250000  1.0
  Ni  Ni118  1  0.06944444  0.37500000  0.01250000  1.0
  Ni  Ni119  1  0.06944444  0.70833333  0.01250000  1.0
  Ni  Ni120  1  0.40277778  0.04166667  0.01250000  1.0
  Ni  Ni121  1  0.40277778  0.37500000  0.01250000  1.0
  Ni  Ni122  1  0.40277778  0.70833333  0.01250000  1.0
  Ni  Ni123  1  0.73611111  0.04166667  0.01250000  1.0
  Ni  Ni124  1  0.73611111  0.37500000  0.01250000  1.0
  Ni  Ni125  1  0.73611111  0.70833333  0.01250000  1.0
  Ni  Ni126  1  0.26388889  0.29166667  0.08750000  1.0
  Ni  Ni127  1  0.26388889  0.62500000  0.08750000  1.0
  Ni  Ni128  1  0.26388889  0.95833333  0.08750000  1.0
  Ni  Ni129  1  0.59722222  0.29166667  0.08750000  1.0
  Ni  Ni130  1  0.59722222  0.62500000  0.08750000  1.0
  Ni  Ni131  1  0.59722222  0.95833333  0.08750000  1.0
  Ni  Ni132  1  0.93055556  0.29166667  0.08750000  1.0
  Ni  Ni133  1  0.93055556  0.62500000  0.08750000  1.0
  Ni  Ni134  1  0.93055556  0.95833333  0.08750000  1.0
  Ni  Ni135  1  0.09722222  0.12500000  0.03750000  1.0
  Ni  Ni136  1  0.09722222  0.45833333  0.03750000  1.0
  Ni  Ni137  1  0.09722222  0.79166667  0.03750000  1.0
  Ni  Ni138  1  0.43055556  0.12500000  0.03750000  1.0
  Ni  Ni139  1  0.43055556  0.45833333  0.03750000  1.0
  Ni  Ni140  1  0.43055556  0.79166667  0.03750000  1.0
  Ni  Ni141  1  0.76388889  0.12500000  0.03750000  1.0
  Ni  Ni142  1  0.76388889  0.45833333  0.03750000  1.0
  Ni  Ni143  1  0.76388889  0.79166667  0.03750000  1.0
  Zn  Zn144  1  0.06820167  0.20833333  0.11361850  1.0
  Zn  Zn145  1  0.06820167  0.54166667  0.11361850  1.0
  Zn  Zn146  1  0.06820167  0.87500000  0.11361850  1.0
  Zn  Zn147  1  0.40153500  0.20833333  0.11361850  1.0
  Zn  Zn148  1  0.40153500  0.54166667  0.11361850  1.0
  Zn  Zn149  1  0.40153500  0.87500000  0.11361850  1.0
  Zn  Zn150  1  0.73486833  0.20833333  0.11361850  1.0
  Zn  Zn151  1  0.73486833  0.54166667  0.11361850  1.0
  Zn  Zn152  1  0.73486833  0.87500000  0.11361850  1.0
  Zn  Zn153  1  0.23486833  0.04166667  0.16361850  1.0
  Zn  Zn154  1  0.23486833  0.37500000  0.16361850  1.0
  Zn  Zn155  1  0.23486833  0.70833333  0.16361850  1.0
  Zn  Zn156  1  0.56820167  0.04166667  0.16361850  1.0
  Zn  Zn157  1  0.56820167  0.37500000  0.16361850  1.0
  Zn  Zn158  1  0.56820167  0.70833333  0.16361850  1.0
  Zn  Zn159  1  0.90153500  0.04166667  0.16361850  1.0
  Zn  Zn160  1  0.90153500  0.37500000  0.16361850  1.0
  Zn  Zn161  1  0.90153500  0.70833333  0.16361850  1.0
  Zn  Zn162  1  0.06820167  0.20833333  0.16250000  1.0
  Zn  Zn163  1  0.06820167  0.54166667  0.16250000  1.0
  Zn  Zn164  1  0.06820167  0.87500000  0.16250000  1.0
  Zn  Zn165  1  0.40153500  0.20833333  0.16250000  1.0
  Zn  Zn166  1  0.40153500  0.54166667  0.16250000  1.0
  Zn  Zn167  1  0.40153500  0.87500000  0.16250000  1.0
  Zn  Zn168  1  0.73486833  0.20833333  0.16250000  1.0
  Zn  Zn169  1  0.73486833  0.54166667  0.16250000  1.0
  Zn  Zn170  1  0.73486833  0.87500000  0.16250000  1.0
  Zn  Zn171  1  0.23486833  0.04166667  0.11250000  1.0
  Zn  Zn172  1  0.23486833  0.37500000  0.11250000  1.0
  Zn  Zn173  1  0.23486833  0.70833333  0.11250000  1.0
  Zn  Zn174  1  0.56820167  0.04166667  0.11250000  1.0
  Zn  Zn175  1  0.56820167  0.37500000  0.11250000  1.0
  Zn  Zn176  1  0.56820167  0.70833333  0.11250000  1.0
  Zn  Zn177  1  0.90153500  0.04166667  0.11250000  1.0
  Zn  Zn178  1  0.90153500  0.37500000  0.11250000  1.0
  Zn  Zn179  1  0.90153500  0.70833333  0.11250000  1.0
  Zn  Zn180  1  0.23859667  0.20833333  0.11138150  1.0
  Zn  Zn181  1  0.23859667  0.54166667  0.11138150  1.0
  Zn  Zn182  1  0.23859667  0.87500000  0.11138150  1.0
  Zn  Zn183  1  0.57193000  0.20833333  0.11138150  1.0
  Zn  Zn184  1  0.57193000  0.54166667  0.11138150  1.0
  Zn  Zn185  1  0.57193000  0.87500000  0.11138150  1.0
  Zn  Zn186  1  0.90526333  0.20833333  0.11138150  1.0
  Zn  Zn187  1  0.90526333  0.54166667  0.11138150  1.0
  Zn  Zn188  1  0.90526333  0.87500000  0.11138150  1.0
  Zn  Zn189  1  0.07193000  0.04166667  0.16138150  1.0
  Zn  Zn190  1  0.07193000  0.37500000  0.16138150  1.0
  Zn  Zn191  1  0.07193000  0.70833333  0.16138150  1.0
  Zn  Zn192  1  0.40526333  0.04166667  0.16138150  1.0
  Zn  Zn193  1  0.40526333  0.37500000  0.16138150  1.0
  Zn  Zn194  1  0.40526333  0.70833333  0.16138150  1.0
  Zn  Zn195  1  0.73859667  0.04166667  0.16138150  1.0
  Zn  Zn196  1  0.73859667  0.37500000  0.16138150  1.0
  Zn  Zn197  1  0.73859667  0.70833333  0.16138150  1.0
  Zn  Zn198  1  0.09846500  0.29166667  0.13638150  1.0
  Zn  Zn199  1  0.09846500  0.62500000  0.13638150  1.0
  Zn  Zn200  1  0.09846500  0.95833333  0.13638150  1.0
  Zn  Zn201  1  0.43179833  0.29166667  0.13638150  1.0
  Zn  Zn202  1  0.43179833  0.62500000  0.13638150  1.0
  Zn  Zn203  1  0.43179833  0.95833333  0.13638150  1.0
  Zn  Zn204  1  0.76513167  0.29166667  0.13638150  1.0
  Zn  Zn205  1  0.76513167  0.62500000  0.13638150  1.0
  Zn  Zn206  1  0.76513167  0.95833333  0.13638150  1.0
  Zn  Zn207  1  0.26513167  0.12500000  0.18638150  1.0
  Zn  Zn208  1  0.26513167  0.45833333  0.18638150  1.0
  Zn  Zn209  1  0.26513167  0.79166667  0.18638150  1.0
  Zn  Zn210  1  0.59846500  0.12500000  0.18638150  1.0
  Zn  Zn211  1  0.59846500  0.45833333  0.18638150  1.0
  Zn  Zn212  1  0.59846500  0.79166667  0.18638150  1.0
  Zn  Zn213  1  0.93179833  0.12500000  0.18638150  1.0
  Zn  Zn214  1  0.93179833  0.45833333  0.18638150  1.0
  Zn  Zn215  1  0.93179833  0.79166667  0.18638150  1.0
  Zn  Zn216  1  0.09846500  0.29166667  0.18750000  1.0
  Zn  Zn217  1  0.09846500  0.62500000  0.18750000  1.0
  Zn  Zn218  1  0.09846500  0.95833333  0.18750000  1.0
  Zn  Zn219  1  0.43179833  0.29166667  0.18750000  1.0
  Zn  Zn220  1  0.43179833  0.62500000  0.18750000  1.0
  Zn  Zn221  1  0.43179833  0.95833333  0.18750000  1.0
  Zn  Zn222  1  0.76513167  0.29166667  0.18750000  1.0
  Zn  Zn223  1  0.76513167  0.62500000  0.18750000  1.0
  Zn  Zn224  1  0.76513167  0.95833333  0.18750000  1.0
  Zn  Zn225  1  0.26513167  0.12500000  0.13750000  1.0
  Zn  Zn226  1  0.26513167  0.45833333  0.13750000  1.0
  Zn  Zn227  1  0.26513167  0.79166667  0.13750000  1.0
  Zn  Zn228  1  0.59846500  0.12500000  0.13750000  1.0
  Zn  Zn229  1  0.59846500  0.45833333  0.13750000  1.0
  Zn  Zn230  1  0.59846500  0.79166667  0.13750000  1.0
  Zn  Zn231  1  0.93179833  0.12500000  0.13750000  1.0
  Zn  Zn232  1  0.93179833  0.45833333  0.13750000  1.0
  Zn  Zn233  1  0.93179833  0.79166667  0.13750000  1.0
  Zn  Zn234  1  0.26140333  0.29166667  0.13861850  1.0
  Zn  Zn235  1  0.26140333  0.62500000  0.13861850  1.0
  Zn  Zn236  1  0.26140333  0.95833333  0.13861850  1.0
  Zn  Zn237  1  0.59473667  0.29166667  0.13861850  1.0
  Zn  Zn238  1  0.59473667  0.62500000  0.13861850  1.0
  Zn  Zn239  1  0.59473667  0.95833333  0.13861850  1.0
  Zn  Zn240  1  0.92807000  0.29166667  0.13861850  1.0
  Zn  Zn241  1  0.92807000  0.62500000  0.13861850  1.0
  Zn  Zn242  1  0.92807000  0.95833333  0.13861850  1.0
  Zn  Zn243  1  0.09473667  0.12500000  0.18861850  1.0
  Zn  Zn244  1  0.09473667  0.45833333  0.18861850  1.0
  Zn  Zn245  1  0.09473667  0.79166667  0.18861850  1.0
  Zn  Zn246  1  0.42807000  0.12500000  0.18861850  1.0
  Zn  Zn247  1  0.42807000  0.45833333  0.18861850  1.0
  Zn  Zn248  1  0.42807000  0.79166667  0.18861850  1.0
  Zn  Zn249  1  0.76140333  0.12500000  0.18861850  1.0
  Zn  Zn250  1  0.76140333  0.45833333  0.18861850  1.0
  Zn  Zn251  1  0.76140333  0.79166667  0.18861850  1.0
  Ni  Ni252  1  0.23611111  0.20833333  0.16250000  1.0
  Ni  Ni253  1  0.23611111  0.54166667  0.16250000  1.0
  Ni  Ni254  1  0.23611111  0.87500000  0.16250000  1.0
  Ni  Ni255  1  0.56944444  0.20833333  0.16250000  1.0
  Ni  Ni256  1  0.56944444  0.54166667  0.16250000  1.0
  Ni  Ni257  1  0.56944444  0.87500000  0.16250000  1.0
  Ni  Ni258  1  0.90277778  0.20833333  0.16250000  1.0
  Ni  Ni259  1  0.90277778  0.54166667  0.16250000  1.0
  Ni  Ni260  1  0.90277778  0.87500000  0.16250000  1.0
  Ni  Ni261  1  0.06944444  0.04166667  0.11250000  1.0
  Ni  Ni262  1  0.06944444  0.37500000  0.11250000  1.0
  Ni  Ni263  1  0.06944444  0.70833333  0.11250000  1.0
  Ni  Ni264  1  0.40277778  0.04166667  0.11250000  1.0
  Ni  Ni265  1  0.40277778  0.37500000  0.11250000  1.0
  Ni  Ni266  1  0.40277778  0.70833333  0.11250000  1.0
  Ni  Ni267  1  0.73611111  0.04166667  0.11250000  1.0
  Ni  Ni268  1  0.73611111  0.37500000  0.11250000  1.0
  Ni  Ni269  1  0.73611111  0.70833333  0.11250000  1.0
  Ni  Ni270  1  0.26388889  0.29166667  0.18750000  1.0
  Ni  Ni271  1  0.26388889  0.62500000  0.18750000  1.0
  Ni  Ni272  1  0.26388889  0.95833333  0.18750000  1.0
  Ni  Ni273  1  0.59722222  0.29166667  0.18750000  1.0
  Ni  Ni274  1  0.59722222  0.62500000  0.18750000  1.0
  Ni  Ni275  1  0.59722222  0.95833333  0.18750000  1.0
  Ni  Ni276  1  0.93055556  0.29166667  0.18750000  1.0
  Ni  Ni277  1  0.93055556  0.62500000  0.18750000  1.0
  Ni  Ni278  1  0.93055556  0.95833333  0.18750000  1.0
  Ni  Ni279  1  0.09722222  0.12500000  0.13750000  1.0
  Ni  Ni280  1  0.09722222  0.45833333  0.13750000  1.0
  Ni  Ni281  1  0.09722222  0.79166667  0.13750000  1.0
  Ni  Ni282  1  0.43055556  0.12500000  0.13750000  1.0
  Ni  Ni283  1  0.43055556  0.45833333  0.13750000  1.0
  Ni  Ni284  1  0.43055556  0.79166667  0.13750000  1.0
  Ni  Ni285  1  0.76388889  0.12500000  0.13750000  1.0
  Ni  Ni286  1  0.76388889  0.45833333  0.13750000  1.0
  Ni  Ni287  1  0.76388889  0.79166667  0.13750000  1.0
  Zn  Zn288  1  0.06820167  0.20833333  0.21361850  1.0
  Zn  Zn289  1  0.06820167  0.54166667  0.21361850  1.0
  Zn  Zn290  1  0.06820167  0.87500000  0.21361850  1.0
  Zn  Zn291  1  0.40153500  0.20833333  0.21361850  1.0
  Zn  Zn292  1  0.40153500  0.54166667  0.21361850  1.0
  Zn  Zn293  1  0.40153500  0.87500000  0.21361850  1.0
  Zn  Zn294  1  0.73486833  0.20833333  0.21361850  1.0
  Zn  Zn295  1  0.73486833  0.54166667  0.21361850  1.0
  Zn  Zn296  1  0.73486833  0.87500000  0.21361850  1.0
  Zn  Zn297  1  0.23486833  0.04166667  0.26361850  1.0
  Zn  Zn298  1  0.23486833  0.37500000  0.26361850  1.0
  Zn  Zn299  1  0.23486833  0.70833333  0.26361850  1.0
  Zn  Zn300  1  0.56820167  0.04166667  0.26361850  1.0
  Zn  Zn301  1  0.56820167  0.37500000  0.26361850  1.0
  Zn  Zn302  1  0.56820167  0.70833333  0.26361850  1.0
  Zn  Zn303  1  0.90153500  0.04166667  0.26361850  1.0
  Zn  Zn304  1  0.90153500  0.37500000  0.26361850  1.0
  Zn  Zn305  1  0.90153500  0.70833333  0.26361850  1.0
  Zn  Zn306  1  0.06820167  0.20833333  0.26250000  1.0
  Zn  Zn307  1  0.06820167  0.54166667  0.26250000  1.0
  Zn  Zn308  1  0.06820167  0.87500000  0.26250000  1.0
  Zn  Zn309  1  0.40153500  0.20833333  0.26250000  1.0
  Zn  Zn310  1  0.40153500  0.54166667  0.26250000  1.0
  Zn  Zn311  1  0.40153500  0.87500000  0.26250000  1.0
  Zn  Zn312  1  0.73486833  0.20833333  0.26250000  1.0
  Zn  Zn313  1  0.73486833  0.54166667  0.26250000  1.0
  Zn  Zn314  1  0.73486833  0.87500000  0.26250000  1.0
  Zn  Zn315  1  0.23486833  0.04166667  0.21250000  1.0
  Zn  Zn316  1  0.23486833  0.37500000  0.21250000  1.0
  Zn  Zn317  1  0.23486833  0.70833333  0.21250000  1.0
  Zn  Zn318  1  0.56820167  0.04166667  0.21250000  1.0
  Zn  Zn319  1  0.56820167  0.37500000  0.21250000  1.0
  Zn  Zn320  1  0.56820167  0.70833333  0.21250000  1.0
  Zn  Zn321  1  0.90153500  0.04166667  0.21250000  1.0
  Zn  Zn322  1  0.90153500  0.37500000  0.21250000  1.0
  Zn  Zn323  1  0.90153500  0.70833333  0.21250000  1.0
  Zn  Zn324  1  0.23859667  0.20833333  0.21138150  1.0
  Zn  Zn325  1  0.23859667  0.54166667  0.21138150  1.0
  Zn  Zn326  1  0.23859667  0.87500000  0.21138150  1.0
  Zn  Zn327  1  0.57193000  0.20833333  0.21138150  1.0
  Zn  Zn328  1  0.57193000  0.54166667  0.21138150  1.0
  Zn  Zn329  1  0.57193000  0.87500000  0.21138150  1.0
  Zn  Zn330  1  0.90526333  0.20833333  0.21138150  1.0
  Zn  Zn331  1  0.90526333  0.54166667  0.21138150  1.0
  Zn  Zn332  1  0.90526333  0.87500000  0.21138150  1.0
  Zn  Zn333  1  0.07193000  0.04166667  0.26138150  1.0
  Zn  Zn334  1  0.07193000  0.37500000  0.26138150  1.0
  Zn  Zn335  1  0.07193000  0.70833333  0.26138150  1.0
  Zn  Zn336  1  0.40526333  0.04166667  0.26138150  1.0
  Zn  Zn337  1  0.40526333  0.37500000  0.26138150  1.0
  Zn  Zn338  1  0.40526333  0.70833333  0.26138150  1.0
  Zn  Zn339  1  0.73859667  0.04166667  0.26138150  1.0
  Zn  Zn340  1  0.73859667  0.37500000  0.26138150  1.0
  Zn  Zn341  1  0.73859667  0.70833333  0.26138150  1.0
  Zn  Zn342  1  0.09846500  0.29166667  0.23638150  1.0
  Zn  Zn343  1  0.09846500  0.62500000  0.23638150  1.0
  Zn  Zn344  1  0.09846500  0.95833333  0.23638150  1.0
  Zn  Zn345  1  0.43179833  0.29166667  0.23638150  1.0
  Zn  Zn346  1  0.43179833  0.62500000  0.23638150  1.0
  Zn  Zn347  1  0.43179833  0.95833333  0.23638150  1.0
  Zn  Zn348  1  0.76513167  0.29166667  0.23638150  1.0
  Zn  Zn349  1  0.76513167  0.62500000  0.23638150  1.0
  Zn  Zn350  1  0.76513167  0.95833333  0.23638150  1.0
  Zn  Zn351  1  0.26513167  0.12500000  0.28638150  1.0
  Zn  Zn352  1  0.26513167  0.45833333  0.28638150  1.0
  Zn  Zn353  1  0.26513167  0.79166667  0.28638150  1.0
  Zn  Zn354  1  0.59846500  0.12500000  0.28638150  1.0
  Zn  Zn355  1  0.59846500  0.45833333  0.28638150  1.0
  Zn  Zn356  1  0.59846500  0.79166667  0.28638150  1.0
  Zn  Zn357  1  0.93179833  0.12500000  0.28638150  1.0
  Zn  Zn358  1  0.93179833  0.45833333  0.28638150  1.0
  Zn  Zn359  1  0.93179833  0.79166667  0.28638150  1.0
  Zn  Zn360  1  0.09846500  0.29166667  0.28750000  1.0
  Zn  Zn361  1  0.09846500  0.62500000  0.28750000  1.0
  Zn  Zn362  1  0.09846500  0.95833333  0.28750000  1.0
  Zn  Zn363  1  0.43179833  0.29166667  0.28750000  1.0
  Zn  Zn364  1  0.43179833  0.62500000  0.28750000  1.0
  Zn  Zn365  1  0.43179833  0.95833333  0.28750000  1.0
  Zn  Zn366  1  0.76513167  0.29166667  0.28750000  1.0
  Zn  Zn367  1  0.76513167  0.62500000  0.28750000  1.0
  Zn  Zn368  1  0.76513167  0.95833333  0.28750000  1.0
  Zn  Zn369  1  0.26513167  0.12500000  0.23750000  1.0
  Zn  Zn370  1  0.26513167  0.45833333  0.23750000  1.0
  Zn  Zn371  1  0.26513167  0.79166667  0.23750000  1.0
  Zn  Zn372  1  0.59846500  0.12500000  0.23750000  1.0
  Zn  Zn373  1  0.59846500  0.45833333  0.23750000  1.0
  Zn  Zn374  1  0.59846500  0.79166667  0.23750000  1.0
  Zn  Zn375  1  0.93179833  0.12500000  0.23750000  1.0
  Zn  Zn376  1  0.93179833  0.45833333  0.23750000  1.0
  Zn  Zn377  1  0.93179833  0.79166667  0.23750000  1.0
  Zn  Zn378  1  0.26140333  0.29166667  0.23861850  1.0
  Zn  Zn379  1  0.26140333  0.62500000  0.23861850  1.0
  Zn  Zn380  1  0.26140333  0.95833333  0.23861850  1.0
  Zn  Zn381  1  0.59473667  0.29166667  0.23861850  1.0
  Zn  Zn382  1  0.59473667  0.62500000  0.23861850  1.0
  Zn  Zn383  1  0.59473667  0.95833333  0.23861850  1.0
  Zn  Zn384  1  0.92807000  0.29166667  0.23861850  1.0
  Zn  Zn385  1  0.92807000  0.62500000  0.23861850  1.0
  Zn  Zn386  1  0.92807000  0.95833333  0.23861850  1.0
  Zn  Zn387  1  0.09473667  0.12500000  0.28861850  1.0
  Zn  Zn388  1  0.09473667  0.45833333  0.28861850  1.0
  Zn  Zn389  1  0.09473667  0.79166667  0.28861850  1.0
  Zn  Zn390  1  0.42807000  0.12500000  0.28861850  1.0
  Zn  Zn391  1  0.42807000  0.45833333  0.28861850  1.0
  Zn  Zn392  1  0.42807000  0.79166667  0.28861850  1.0
  Zn  Zn393  1  0.76140333  0.12500000  0.28861850  1.0
  Zn  Zn394  1  0.76140333  0.45833333  0.28861850  1.0
  Zn  Zn395  1  0.76140333  0.79166667  0.28861850  1.0
  Ni  Ni396  1  0.23611111  0.20833333  0.26250000  1.0
  Ni  Ni397  1  0.23611111  0.54166667  0.26250000  1.0
  Ni  Ni398  1  0.23611111  0.87500000  0.26250000  1.0
  Ni  Ni399  1  0.56944444  0.20833333  0.26250000  1.0
  Ni  Ni400  1  0.56944444  0.54166667  0.26250000  1.0
  Ni  Ni401  1  0.56944444  0.87500000  0.26250000  1.0
  Ni  Ni402  1  0.90277778  0.20833333  0.26250000  1.0
  Ni  Ni403  1  0.90277778  0.54166667  0.26250000  1.0
  Ni  Ni404  1  0.90277778  0.87500000  0.26250000  1.0
  Ni  Ni405  1  0.06944444  0.04166667  0.21250000  1.0
  Ni  Ni406  1  0.06944444  0.37500000  0.21250000  1.0
  Ni  Ni407  1  0.06944444  0.70833333  0.21250000  1.0
  Ni  Ni408  1  0.40277778  0.04166667  0.21250000  1.0
  Ni  Ni409  1  0.40277778  0.37500000  0.21250000  1.0
  Ni  Ni410  1  0.40277778  0.70833333  0.21250000  1.0
  Ni  Ni411  1  0.73611111  0.04166667  0.21250000  1.0
  Ni  Ni412  1  0.73611111  0.37500000  0.21250000  1.0
  Ni  Ni413  1  0.73611111  0.70833333  0.21250000  1.0
  Ni  Ni414  1  0.26388889  0.29166667  0.28750000  1.0
  Ni  Ni415  1  0.26388889  0.62500000  0.28750000  1.0
  Ni  Ni416  1  0.26388889  0.95833333  0.28750000  1.0
  Ni  Ni417  1  0.59722222  0.29166667  0.28750000  1.0
  Ni  Ni418  1  0.59722222  0.62500000  0.28750000  1.0
  Ni  Ni419  1  0.59722222  0.95833333  0.28750000  1.0
  Ni  Ni420  1  0.93055556  0.29166667  0.28750000  1.0
  Ni  Ni421  1  0.93055556  0.62500000  0.28750000  1.0
  Ni  Ni422  1  0.93055556  0.95833333  0.28750000  1.0
  Ni  Ni423  1  0.09722222  0.12500000  0.23750000  1.0
  Ni  Ni424  1  0.09722222  0.45833333  0.23750000  1.0
  Ni  Ni425  1  0.09722222  0.79166667  0.23750000  1.0
  Ni  Ni426  1  0.43055556  0.12500000  0.23750000  1.0
  Ni  Ni427  1  0.43055556  0.45833333  0.23750000  1.0
  Ni  Ni428  1  0.43055556  0.79166667  0.23750000  1.0
  Ni  Ni429  1  0.76388889  0.12500000  0.23750000  1.0
  Ni  Ni430  1  0.76388889  0.45833333  0.23750000  1.0
  Ni  Ni431  1  0.76388889  0.79166667  0.23750000  1.0
  Zn  Zn432  1  0.06820167  0.20833333  0.31361850  1.0
  Zn  Zn433  1  0.06820167  0.54166667  0.31361850  1.0
  Zn  Zn434  1  0.06820167  0.87500000  0.31361850  1.0
  Zn  Zn435  1  0.40153500  0.20833333  0.31361850  1.0
  Zn  Zn436  1  0.40153500  0.54166667  0.31361850  1.0
  Zn  Zn437  1  0.40153500  0.87500000  0.31361850  1.0
  Zn  Zn438  1  0.73486833  0.20833333  0.31361850  1.0
  Zn  Zn439  1  0.73486833  0.54166667  0.31361850  1.0
  Zn  Zn440  1  0.73486833  0.87500000  0.31361850  1.0
  Zn  Zn441  1  0.23486833  0.04166667  0.36361850  1.0
  Zn  Zn442  1  0.23486833  0.37500000  0.36361850  1.0
  Zn  Zn443  1  0.23486833  0.70833333  0.36361850  1.0
  Zn  Zn444  1  0.56820167  0.04166667  0.36361850  1.0
  Zn  Zn445  1  0.56820167  0.37500000  0.36361850  1.0
  Zn  Zn446  1  0.56820167  0.70833333  0.36361850  1.0
  Zn  Zn447  1  0.90153500  0.04166667  0.36361850  1.0
  Zn  Zn448  1  0.90153500  0.37500000  0.36361850  1.0
  Zn  Zn449  1  0.90153500  0.70833333  0.36361850  1.0
  Zn  Zn450  1  0.06820167  0.20833333  0.36250000  1.0
  Zn  Zn451  1  0.06820167  0.54166667  0.36250000  1.0
  Zn  Zn452  1  0.06820167  0.87500000  0.36250000  1.0
  Zn  Zn453  1  0.40153500  0.20833333  0.36250000  1.0
  Zn  Zn454  1  0.40153500  0.54166667  0.36250000  1.0
  Zn  Zn455  1  0.40153500  0.87500000  0.36250000  1.0
  Zn  Zn456  1  0.73486833  0.20833333  0.36250000  1.0
  Zn  Zn457  1  0.73486833  0.54166667  0.36250000  1.0
  Zn  Zn458  1  0.73486833  0.87500000  0.36250000  1.0
  Zn  Zn459  1  0.23486833  0.04166667  0.31250000  1.0
  Zn  Zn460  1  0.23486833  0.37500000  0.31250000  1.0
  Zn  Zn461  1  0.23486833  0.70833333  0.31250000  1.0
  Zn  Zn462  1  0.56820167  0.04166667  0.31250000  1.0
  Zn  Zn463  1  0.56820167  0.37500000  0.31250000  1.0
  Zn  Zn464  1  0.56820167  0.70833333  0.31250000  1.0
  Zn  Zn465  1  0.90153500  0.04166667  0.31250000  1.0
  Zn  Zn466  1  0.90153500  0.37500000  0.31250000  1.0
  Zn  Zn467  1  0.90153500  0.70833333  0.31250000  1.0
  Zn  Zn468  1  0.23859667  0.20833333  0.31138150  1.0
  Zn  Zn469  1  0.23859667  0.54166667  0.31138150  1.0
  Zn  Zn470  1  0.23859667  0.87500000  0.31138150  1.0
  Zn  Zn471  1  0.57193000  0.20833333  0.31138150  1.0
  Zn  Zn472  1  0.57193000  0.54166667  0.31138150  1.0
  Zn  Zn473  1  0.57193000  0.87500000  0.31138150  1.0
  Zn  Zn474  1  0.90526333  0.20833333  0.31138150  1.0
  Zn  Zn475  1  0.90526333  0.54166667  0.31138150  1.0
  Zn  Zn476  1  0.90526333  0.87500000  0.31138150  1.0
  Zn  Zn477  1  0.07193000  0.04166667  0.36138150  1.0
  Zn  Zn478  1  0.07193000  0.37500000  0.36138150  1.0
  Zn  Zn479  1  0.07193000  0.70833333  0.36138150  1.0
  Zn  Zn480  1  0.40526333  0.04166667  0.36138150  1.0
  Zn  Zn481  1  0.40526333  0.37500000  0.36138150  1.0
  Zn  Zn482  1  0.40526333  0.70833333  0.36138150  1.0
  Zn  Zn483  1  0.73859667  0.04166667  0.36138150  1.0
  Zn  Zn484  1  0.73859667  0.37500000  0.36138150  1.0
  Zn  Zn485  1  0.73859667  0.70833333  0.36138150  1.0
  Zn  Zn486  1  0.09846500  0.29166667  0.33638150  1.0
  Zn  Zn487  1  0.09846500  0.62500000  0.33638150  1.0
  Zn  Zn488  1  0.09846500  0.95833333  0.33638150  1.0
  Zn  Zn489  1  0.43179833  0.29166667  0.33638150  1.0
  Zn  Zn490  1  0.43179833  0.62500000  0.33638150  1.0
  Zn  Zn491  1  0.43179833  0.95833333  0.33638150  1.0
  Zn  Zn492  1  0.76513167  0.29166667  0.33638150  1.0
  Zn  Zn493  1  0.76513167  0.62500000  0.33638150  1.0
  Zn  Zn494  1  0.76513167  0.95833333  0.33638150  1.0
  Zn  Zn495  1  0.26513167  0.12500000  0.38638150  1.0
  Zn  Zn496  1  0.26513167  0.45833333  0.38638150  1.0
  Zn  Zn497  1  0.26513167  0.79166667  0.38638150  1.0
  Zn  Zn498  1  0.59846500  0.12500000  0.38638150  1.0
  Zn  Zn499  1  0.59846500  0.45833333  0.38638150  1.0
  Zn  Zn500  1  0.59846500  0.79166667  0.38638150  1.0
  Zn  Zn501  1  0.93179833  0.12500000  0.38638150  1.0
  Zn  Zn502  1  0.93179833  0.45833333  0.38638150  1.0
  Zn  Zn503  1  0.93179833  0.79166667  0.38638150  1.0
  Zn  Zn504  1  0.09846500  0.29166667  0.38750000  1.0
  Zn  Zn505  1  0.09846500  0.62500000  0.38750000  1.0
  Zn  Zn506  1  0.09846500  0.95833333  0.38750000  1.0
  Zn  Zn507  1  0.43179833  0.29166667  0.38750000  1.0
  Zn  Zn508  1  0.43179833  0.62500000  0.38750000  1.0
  Zn  Zn509  1  0.43179833  0.95833333  0.38750000  1.0
  Zn  Zn510  1  0.76513167  0.29166667  0.38750000  1.0
  Zn  Zn511  1  0.76513167  0.62500000  0.38750000  1.0
  Zn  Zn512  1  0.76513167  0.95833333  0.38750000  1.0
  Zn  Zn513  1  0.26513167  0.12500000  0.33750000  1.0
  Zn  Zn514  1  0.26513167  0.45833333  0.33750000  1.0
  Zn  Zn515  1  0.26513167  0.79166667  0.33750000  1.0
  Zn  Zn516  1  0.59846500  0.12500000  0.33750000  1.0
  Zn  Zn517  1  0.59846500  0.45833333  0.33750000  1.0
  Zn  Zn518  1  0.59846500  0.79166667  0.33750000  1.0
  Zn  Zn519  1  0.93179833  0.12500000  0.33750000  1.0
  Zn  Zn520  1  0.93179833  0.45833333  0.33750000  1.0
  Zn  Zn521  1  0.93179833  0.79166667  0.33750000  1.0
  Zn  Zn522  1  0.26140333  0.29166667  0.33861850  1.0
  Zn  Zn523  1  0.26140333  0.62500000  0.33861850  1.0
  Zn  Zn524  1  0.26140333  0.95833333  0.33861850  1.0
  Zn  Zn525  1  0.59473667  0.29166667  0.33861850  1.0
  Zn  Zn526  1  0.59473667  0.62500000  0.33861850  1.0
  Zn  Zn527  1  0.59473667  0.95833333  0.33861850  1.0
  Zn  Zn528  1  0.92807000  0.29166667  0.33861850  1.0
  Zn  Zn529  1  0.92807000  0.62500000  0.33861850  1.0
  Zn  Zn530  1  0.92807000  0.95833333  0.33861850  1.0
  Zn  Zn531  1  0.09473667  0.12500000  0.38861850  1.0
  Zn  Zn532  1  0.09473667  0.45833333  0.38861850  1.0
  Zn  Zn533  1  0.09473667  0.79166667  0.38861850  1.0
  Zn  Zn534  1  0.42807000  0.12500000  0.38861850  1.0
  Zn  Zn535  1  0.42807000  0.45833333  0.38861850  1.0
  Zn  Zn536  1  0.42807000  0.79166667  0.38861850  1.0
  Zn  Zn537  1  0.76140333  0.12500000  0.38861850  1.0
  Zn  Zn538  1  0.76140333  0.45833333  0.38861850  1.0
  Zn  Zn539  1  0.76140333  0.79166667  0.38861850  1.0
  Ni  Ni540  1  0.23611111  0.20833333  0.36250000  1.0
  Ni  Ni541  1  0.23611111  0.54166667  0.36250000  1.0
  Ni  Ni542  1  0.23611111  0.87500000  0.36250000  1.0
  Ni  Ni543  1  0.56944444  0.20833333  0.36250000  1.0
  Ni  Ni544  1  0.56944444  0.54166667  0.36250000  1.0
  Ni  Ni545  1  0.56944444  0.87500000  0.36250000  1.0
  Ni  Ni546  1  0.90277778  0.20833333  0.36250000  1.0
  Ni  Ni547  1  0.90277778  0.54166667  0.36250000  1.0
  Ni  Ni548  1  0.90277778  0.87500000  0.36250000  1.0
  Ni  Ni549  1  0.06944444  0.04166667  0.31250000  1.0
  Ni  Ni550  1  0.06944444  0.37500000  0.31250000  1.0
  Ni  Ni551  1  0.06944444  0.70833333  0.31250000  1.0
  Ni  Ni552  1  0.40277778  0.04166667  0.31250000  1.0
  Ni  Ni553  1  0.40277778  0.37500000  0.31250000  1.0
  Ni  Ni554  1  0.40277778  0.70833333  0.31250000  1.0
  Ni  Ni555  1  0.73611111  0.04166667  0.31250000  1.0
  Ni  Ni556  1  0.73611111  0.37500000  0.31250000  1.0
  Ni  Ni557  1  0.73611111  0.70833333  0.31250000  1.0
  Ni  Ni558  1  0.26388889  0.29166667  0.38750000  1.0
  Ni  Ni559  1  0.26388889  0.62500000  0.38750000  1.0
  Ni  Ni560  1  0.26388889  0.95833333  0.38750000  1.0
  Ni  Ni561  1  0.59722222  0.29166667  0.38750000  1.0
  Ni  Ni562  1  0.59722222  0.62500000  0.38750000  1.0
  Ni  Ni563  1  0.59722222  0.95833333  0.38750000  1.0
  Ni  Ni564  1  0.93055556  0.29166667  0.38750000  1.0
  Ni  Ni565  1  0.93055556  0.62500000  0.38750000  1.0
  Ni  Ni566  1  0.93055556  0.95833333  0.38750000  1.0
  Ni  Ni567  1  0.09722222  0.12500000  0.33750000  1.0
  Ni  Ni568  1  0.09722222  0.45833333  0.33750000  1.0
  Ni  Ni569  1  0.09722222  0.79166667  0.33750000  1.0
  Ni  Ni570  1  0.43055556  0.12500000  0.33750000  1.0
  Ni  Ni571  1  0.43055556  0.45833333  0.33750000  1.0
  Ni  Ni572  1  0.43055556  0.79166667  0.33750000  1.0
  Ni  Ni573  1  0.76388889  0.12500000  0.33750000  1.0
  Ni  Ni574  1  0.76388889  0.45833333  0.33750000  1.0
  Ni  Ni575  1  0.76388889  0.79166667  0.33750000  1.0
