# generated using pymatgen
data_ZnNi
_symmetry_space_group_name_H-M   'P 1'
_cell_length_a   11.34085434
_cell_length_b   16.03839002
_cell_length_c   26.46199346
_cell_angle_alpha   90.00000000
_cell_angle_beta   90.00000000
_cell_angle_gamma   90.00000000
_symmetry_Int_Tables_number   1
_chemical_formula_structural   ZnNi
_chemical_formula_sum   'Zn54 Ni54'
_cell_volume   4813.14671991
_cell_formula_units_Z   54
loop_
 _symmetry_equiv_pos_site_id
 _symmetry_equiv_pos_as_xyz
  1  'x, y, z'
loop_
 _atom_site_type_symbol
 _atom_site_label
 _atom_site_symmetry_multiplicity
 _atom_site_fract_x
 _atom_site_fract_y
 _atom_site_fract_z
 _atom_site_occupancy
  Ni  Ni0  1  0.00000000  0.00000000  0.89285714  1.0
  Ni  Ni1  1  0.00000000  0.33333333  0.89285714  1.0
  Ni  Ni2  1  0.00000000  0.66666667  0.89285714  1.0
  Ni  Ni3  1  0.33333333  0.00000000  0.89285714  1.0
  Ni  Ni4  1  0.33333333  0.33333333  0.89285714  1.0
  Ni  Ni5  1  0.33333333  0.66666667  0.89285714  1.0
  Ni  Ni6  1  0.66666667  0.00000000  0.89285714  1.0
  Ni  Ni7  1  0.66666667  0.33333333  0.89285714  1.0
  Ni  Ni8  1  0.66666667  0.66666667  0.89285714  1.0
  Ni  Ni9  1  0.16666667  0.16666667  0.96428571  1.0
  Ni  Ni10  1  0.16666667  0.50000000  0.96428571  1.0
  Ni  Ni11  1  0.16666667  0.83333333  0.96428571  1.0
  Ni  Ni12  1  0.50000000  0.16666667  0.96428571  1.0
  Ni  Ni13  1  0.50000000  0.50000000  0.96428571  1.0
  Ni  Ni14  1  0.50000000  0.83333333  0.96428571  1.0
  Ni  Ni15  1  0.83333333  0.16666667  0.96428571  1.0
  Ni  Ni16  1  0.83333333  0.50000000  0.96428571  1.0
  Ni  Ni17  1  0.83333333  0.83333333  0.96428571  1.0
  Ni  Ni18  1  0.00000000  0.00000000  0.75000000  1.0
  Ni  Ni19  1  0.00000000  0.33333333  0.75000000  1.0
  Ni  Ni20  1  0.00000000  0.66666667  0.75000000  1.0
  Ni  Ni21  1  0.33333333  0.00000000  0.75000000  1.0
  Ni  Ni22  1  0.33333333  0.33333333  0.75000000  1.0
  Ni  Ni23  1  0.33333333  0.66666667  0.75000000  1.0
  Ni  Ni24  1  0.66666667  0.00000000  0.75000000  1.0
  Ni  Ni25  1  0.66666667  0.33333333  0.75000000  1.0
  Ni  Ni26  1  0.66666667  0.66666667  0.75000000  1.0
  Ni  Ni27  1  0.16666667  0.16666667  0.82142857  1.0
  Ni  Ni28  1  0.16666667  0.50000000  0.82142857  1.0
  Ni  Ni29  1  0.16666667  0.83333333  0.82142857  1.0
  Ni  Ni30  1  0.50000000  0.16666667  0.82142857  1.0
  Ni  Ni31  1  0.50000000  0.50000000  0.82142857  1.0
  Ni  Ni32  1  0.50000000  0.83333333  0.82142857  1.0
  Ni  Ni33  1  0.83333333  0.16666667  0.82142857  1.0
  Ni  Ni34  1  0.83333333  0.50000000  0.82142857  1.0
  Ni  Ni35  1  0.83333333  0.83333333  0.82142857  1.0
  Ni  Ni36  1  0.00000000  0.00000000  0.60714286  1.0
  Ni  Ni37  1  0.00000000  0.33333333  0.60714286  1.0
  Ni  Ni38  1  0.00000000  0.66666667  0.60714286  1.0
  Ni  Ni39  1  0.33333333  0.00000000  0.60714286  1.0
  Ni  Ni40  1  0.33333333  0.33333333  0.60714286  1.0
  Ni  Ni41  1  0.33333333  0.66666667  0.60714286  1.0
  Ni  Ni42  1  0.66666667  0.00000000  0.60714286  1.0
  Ni  Ni43  1  0.66666667  0.33333333  0.60714286  1.0
  Ni  Ni44  1  0.66666667  0.66666667  0.60714286  1.0
  Ni  Ni45  1  0.16666667  0.16666667  0.67857143  1.0
  Ni  Ni46  1  0.16666667  0.50000000  0.67857143  1.0
  Ni  Ni47  1  0.16666667  0.83333333  0.67857143  1.0
  Ni  Ni48  1  0.50000000  0.16666667  0.67857143  1.0
  Ni  Ni49  1  0.50000000  0.50000000  0.67857143  1.0
  Ni  Ni50  1  0.50000000  0.83333333  0.67857143  1.0
  Ni  Ni51  1  0.83333333  0.16666667  0.67857143  1.0
  Ni  Ni52  1  0.83333333  0.50000000  0.67857143  1.0
  Ni  Ni53  1  0.83333333  0.83333333  0.67857143  1.0
  Zn  Zn54  1  0.33333333  0.08333333  0.96428571  1.0
  Zn  Zn55  1  0.33333333  0.41666667  0.96428571  1.0
  Zn  Zn56  1  0.33333333  0.75000000  0.96428571  1.0
  Zn  Zn57  1  0.66666667  0.08333333  0.96428571  1.0
  Zn  Zn58  1  0.66666667  0.41666667  0.96428571  1.0
  Zn  Zn59  1  0.66666667  0.75000000  0.96428571  1.0
  Zn  Zn60  1  1.00000000  0.08333333  0.96428571  1.0
  Zn  Zn61  1  1.00000000  0.41666667  0.96428571  1.0
  Zn  Zn62  1  1.00000000  0.75000000  0.96428571  1.0
  Zn  Zn63  1  0.16666667  0.25000000  0.89285714  1.0
  Zn  Zn64  1  0.16666667  0.58333333  0.89285714  1.0
  Zn  Zn65  1  0.16666667  0.91666667  0.89285714  1.0
  Zn  Zn66  1  0.50000000  0.25000000  0.89285714  1.0
  Zn  Zn67  1  0.50000000  0.58333333  0.89285714  1.0
  Zn  Zn68  1  0.50000000  0.91666667  0.89285714  1.0
  Zn  Zn69  1  0.83333333  0.25000000  0.89285714  1.0
  Zn  Zn70  1  0.83333333  0.58333333  0.89285714  1.0
  Zn  Zn71  1  0.83333333  0.91666667  0.89285714  1.0
  Zn  Zn72  1  0.00000000  0.08333333  0.82142857  1.0
  Zn  Zn73  1  0.00000000  0.41666667  0.82142857  1.0
  Zn  Zn74  1  0.00000000  0.75000000  0.82142857  1.0
  Zn  Zn75  1  0.33333333  0.08333333  0.82142857  1.0
  Zn  Zn76  1  0.33333333  0.41666667  0.82142857  1.0
  Zn  Zn77  1  0.33333333  0.75000000  0.82142857  1.0
  Zn  Zn78  1  0.66666667  0.08333333  0.82142857  1.0
  Zn  Zn79  1  0.66666667  0.41666667  0.82142857  1.0
  Zn  Zn80  1  0.66666667  0.75000000  0.82142857  1.0
  Zn  Zn81  1  0.16666667  0.25000000  0.75000000  1.0
  Zn  Zn82  1  0.16666667  0.58333333  0.75000000  1.0
  Zn  Zn83  1  0.16666667  0.91666667  0.75000000  1.0
  Zn  Zn84  1  0.50000000  0.25000000  0.75000000  1.0
  Zn  Zn85  1  0.50000000  0.58333333  0.75000000  1.0
  Zn  Zn86  1  0.50000000  0.91666667  0.75000000  1.0
  Zn  Zn87  1  0.83333333  0.25000000  0.75000000  1.0
  Zn  Zn88  1  0.83333333  0.58333333  0.75000000  1.0
  Zn  Zn89  1  0.83333333  0.91666667  0.75000000  1.0
  Zn  Zn90  1  0.00000000  0.08333333  0.67857143  1.0
  Zn  Zn91  1  0.00000000  0.41666667  0.67857143  1.0
  Zn  Zn92  1  0.00000000  0.75000000  0.67857143  1.0
  Zn  Zn93  1  0.33333333  0.08333333  0.67857143  1.0
  Zn  Zn94  1  0.33333333  0.41666667  0.67857143  1.0
  Zn  Zn95  1  0.33333333  0.75000000  0.67857143  1.0
  Zn  Zn96  1  0.66666667  0.08333333  0.67857143  1.0
  Zn  Zn97  1  0.66666667  0.41666667  0.67857143  1.0
  Zn  Zn98  1  0.66666667  0.75000000  0.67857143  1.0
  Zn  Zn99  1  0.16666667  0.25000000  0.60714286  1.0
  Zn  Zn100  1  0.16666667  0.58333333  0.60714286  1.0
  Zn  Zn101  1  0.16666667  0.91666667  0.60714286  1.0
  Zn  Zn102  1  0.50000000  0.25000000  0.60714286  1.0
  Zn  Zn103  1  0.50000000  0.58333333  0.60714286  1.0
  Zn  Zn104  1  0.50000000  0.91666667  0.60714286  1.0
  Zn  Zn105  1  0.83333333  0.25000000  0.60714286  1.0
  Zn  Zn106  1  0.83333333  0.58333333  0.60714286  1.0
  Zn  Zn107  1  0.83333333  0.91666667  0.60714286  1.0
