# generated using pymatgen
data_ZnNi3
_symmetry_space_group_name_H-M   'P 1'
_cell_length_a   15.31308182
_cell_length_b   23.66214015
_cell_length_c   95.41383302
_cell_angle_alpha   155.41078985
_cell_angle_beta   126.04835258
_cell_angle_gamma   71.12057232
_symmetry_Int_Tables_number   1
_chemical_formula_structural   ZnNi3
_chemical_formula_sum   'Zn81 Ni243'
_cell_volume   9044.77315406
_cell_formula_units_Z   81
loop_
 _symmetry_equiv_pos_site_id
 _symmetry_equiv_pos_as_xyz
  1  'x, y, z'
loop_
 _atom_site_type_symbol
 _atom_site_label
 _atom_site_symmetry_multiplicity
 _atom_site_fract_x
 _atom_site_fract_y
 _atom_site_fract_z
 _atom_site_occupancy
  Zn  Zn0  1  0.00000000  0.00000000  0.03409091  1.0
  Zn  Zn1  1  0.00000000  0.33333333  0.03409091  1.0
  Zn  Zn2  1  0.00000000  0.66666667  0.03409091  1.0
  Zn  Zn3  1  0.33333333  0.00000000  0.03409091  1.0
  Zn  Zn4  1  0.33333333  0.33333333  0.03409091  1.0
  Zn  Zn5  1  0.33333333  0.66666667  0.03409091  1.0
  Zn  Zn6  1  0.66666667  0.00000000  0.03409091  1.0
  Zn  Zn7  1  0.66666667  0.33333333  0.03409091  1.0
  Zn  Zn8  1  0.66666667  0.66666667  0.03409091  1.0
  Ni  Ni9  1  0.08333333  0.16666667  0.01136364  1.0
  Ni  Ni10  1  0.08333333  0.50000000  0.01136364  1.0
  Ni  Ni11  1  0.08333333  0.83333333  0.01136364  1.0
  Ni  Ni12  1  0.41666667  0.16666667  0.01136364  1.0
  Ni  Ni13  1  0.41666667  0.50000000  0.01136364  1.0
  Ni  Ni14  1  0.41666667  0.83333333  0.01136364  1.0
  Ni  Ni15  1  0.75000000  0.16666667  0.01136364  1.0
  Ni  Ni16  1  0.75000000  0.50000000  0.01136364  1.0
  Ni  Ni17  1  0.75000000  0.83333333  0.01136364  1.0
  Ni  Ni18  1  0.25000000  0.16666667  0.01136364  1.0
  Ni  Ni19  1  0.25000000  0.50000000  0.01136364  1.0
  Ni  Ni20  1  0.25000000  0.83333333  0.01136364  1.0
  Ni  Ni21  1  0.58333333  0.16666667  0.01136364  1.0
  Ni  Ni22  1  0.58333333  0.50000000  0.01136364  1.0
  Ni  Ni23  1  0.58333333  0.83333333  0.01136364  1.0
  Ni  Ni24  1  0.91666667  0.16666667  0.01136364  1.0
  Ni  Ni25  1  0.91666667  0.50000000  0.01136364  1.0
  Ni  Ni26  1  0.91666667  0.83333333  0.01136364  1.0
  Ni  Ni27  1  0.16666667  0.33333333  0.03409091  1.0
  Ni  Ni28  1  0.16666667  0.66666667  0.03409091  1.0
  Ni  Ni29  1  0.16666667  1.00000000  0.03409091  1.0
  Ni  Ni30  1  0.50000000  0.33333333  0.03409091  1.0
  Ni  Ni31  1  0.50000000  0.66666667  0.03409091  1.0
  Ni  Ni32  1  0.50000000  1.00000000  0.03409091  1.0
  Ni  Ni33  1  0.83333333  0.33333333  0.03409091  1.0
  Ni  Ni34  1  0.83333333  0.66666667  0.03409091  1.0
  Ni  Ni35  1  0.83333333  1.00000000  0.03409091  1.0
  Zn  Zn36  1  0.00000000  0.00000000  0.07954545  1.0
  Zn  Zn37  1  0.00000000  0.33333333  0.07954545  1.0
  Zn  Zn38  1  0.00000000  0.66666667  0.07954545  1.0
  Zn  Zn39  1  0.33333333  0.00000000  0.07954545  1.0
  Zn  Zn40  1  0.33333333  0.33333333  0.07954545  1.0
  Zn  Zn41  1  0.33333333  0.66666667  0.07954545  1.0
  Zn  Zn42  1  0.66666667  0.00000000  0.07954545  1.0
  Zn  Zn43  1  0.66666667  0.33333333  0.07954545  1.0
  Zn  Zn44  1  0.66666667  0.66666667  0.07954545  1.0
  Ni  Ni45  1  0.08333333  0.16666667  0.05681818  1.0
  Ni  Ni46  1  0.08333333  0.50000000  0.05681818  1.0
  Ni  Ni47  1  0.08333333  0.83333333  0.05681818  1.0
  Ni  Ni48  1  0.41666667  0.16666667  0.05681818  1.0
  Ni  Ni49  1  0.41666667  0.50000000  0.05681818  1.0
  Ni  Ni50  1  0.41666667  0.83333333  0.05681818  1.0
  Ni  Ni51  1  0.75000000  0.16666667  0.05681818  1.0
  Ni  Ni52  1  0.75000000  0.50000000  0.05681818  1.0
  Ni  Ni53  1  0.75000000  0.83333333  0.05681818  1.0
  Ni  Ni54  1  0.25000000  0.16666667  0.05681818  1.0
  Ni  Ni55  1  0.25000000  0.50000000  0.05681818  1.0
  Ni  Ni56  1  0.25000000  0.83333333  0.05681818  1.0
  Ni  Ni57  1  0.58333333  0.16666667  0.05681818  1.0
  Ni  Ni58  1  0.58333333  0.50000000  0.05681818  1.0
  Ni  Ni59  1  0.58333333  0.83333333  0.05681818  1.0
  Ni  Ni60  1  0.91666667  0.16666667  0.05681818  1.0
  Ni  Ni61  1  0.91666667  0.50000000  0.05681818  1.0
  Ni  Ni62  1  0.91666667  0.83333333  0.05681818  1.0
  Ni  Ni63  1  0.16666667  0.33333333  0.07954545  1.0
  Ni  Ni64  1  0.16666667  0.66666667  0.07954545  1.0
  Ni  Ni65  1  0.16666667  1.00000000  0.07954545  1.0
  Ni  Ni66  1  0.50000000  0.33333333  0.07954545  1.0
  Ni  Ni67  1  0.50000000  0.66666667  0.07954545  1.0
  Ni  Ni68  1  0.50000000  1.00000000  0.07954545  1.0
  Ni  Ni69  1  0.83333333  0.33333333  0.07954545  1.0
  Ni  Ni70  1  0.83333333  0.66666667  0.07954545  1.0
  Ni  Ni71  1  0.83333333  1.00000000  0.07954545  1.0
  Zn  Zn72  1  0.00000000  0.00000000  0.12500000  1.0
  Zn  Zn73  1  0.00000000  0.33333333  0.12500000  1.0
  Zn  Zn74  1  0.00000000  0.66666667  0.12500000  1.0
  Zn  Zn75  1  0.33333333  0.00000000  0.12500000  1.0
  Zn  Zn76  1  0.33333333  0.33333333  0.12500000  1.0
  Zn  Zn77  1  0.33333333  0.66666667  0.12500000  1.0
  Zn  Zn78  1  0.66666667  0.00000000  0.12500000  1.0
  Zn  Zn79  1  0.66666667  0.33333333  0.12500000  1.0
  Zn  Zn80  1  0.66666667  0.66666667  0.12500000  1.0
  Ni  Ni81  1  0.08333333  0.16666667  0.10227273  1.0
  Ni  Ni82  1  0.08333333  0.50000000  0.10227273  1.0
  Ni  Ni83  1  0.08333333  0.83333333  0.10227273  1.0
  Ni  Ni84  1  0.41666667  0.16666667  0.10227273  1.0
  Ni  Ni85  1  0.41666667  0.50000000  0.10227273  1.0
  Ni  Ni86  1  0.41666667  0.83333333  0.10227273  1.0
  Ni  Ni87  1  0.75000000  0.16666667  0.10227273  1.0
  Ni  Ni88  1  0.75000000  0.50000000  0.10227273  1.0
  Ni  Ni89  1  0.75000000  0.83333333  0.10227273  1.0
  Ni  Ni90  1  0.25000000  0.16666667  0.10227273  1.0
  Ni  Ni91  1  0.25000000  0.50000000  0.10227273  1.0
  Ni  Ni92  1  0.25000000  0.83333333  0.10227273  1.0
  Ni  Ni93  1  0.58333333  0.16666667  0.10227273  1.0
  Ni  Ni94  1  0.58333333  0.50000000  0.10227273  1.0
  Ni  Ni95  1  0.58333333  0.83333333  0.10227273  1.0
  Ni  Ni96  1  0.91666667  0.16666667  0.10227273  1.0
  Ni  Ni97  1  0.91666667  0.50000000  0.10227273  1.0
  Ni  Ni98  1  0.91666667  0.83333333  0.10227273  1.0
  Ni  Ni99  1  0.16666667  0.33333333  0.12500000  1.0
  Ni  Ni100  1  0.16666667  0.66666667  0.12500000  1.0
  Ni  Ni101  1  0.16666667  1.00000000  0.12500000  1.0
  Ni  Ni102  1  0.50000000  0.33333333  0.12500000  1.0
  Ni  Ni103  1  0.50000000  0.66666667  0.12500000  1.0
  Ni  Ni104  1  0.50000000  1.00000000  0.12500000  1.0
  Ni  Ni105  1  0.83333333  0.33333333  0.12500000  1.0
  Ni  Ni106  1  0.83333333  0.66666667  0.12500000  1.0
  Ni  Ni107  1  0.83333333  1.00000000  0.12500000  1.0
  Zn  Zn108  1  0.00000000  0.00000000  0.17045455  1.0
  Zn  Zn109  1  0.00000000  0.33333333  0.17045455  1.0
  Zn  Zn110  1  0.00000000  0.66666667  0.17045455  1.0
  Zn  Zn111  1  0.33333333  0.00000000  0.17045455  1.0
  Zn  Zn112  1  0.33333333  0.33333333  0.17045455  1.0
  Zn  Zn113  1  0.33333333  0.66666667  0.17045455  1.0
  Zn  Zn114  1  0.66666667  0.00000000  0.17045455  1.0
  Zn  Zn115  1  0.66666667  0.33333333  0.17045455  1.0
  Zn  Zn116  1  0.66666667  0.66666667  0.17045455  1.0
  Ni  Ni117  1  0.08333333  0.16666667  0.14772727  1.0
  Ni  Ni118  1  0.08333333  0.50000000  0.14772727  1.0
  Ni  Ni119  1  0.08333333  0.83333333  0.14772727  1.0
  Ni  Ni120  1  0.41666667  0.16666667  0.14772727  1.0
  Ni  Ni121  1  0.41666667  0.50000000  0.14772727  1.0
  Ni  Ni122  1  0.41666667  0.83333333  0.14772727  1.0
  Ni  Ni123  1  0.75000000  0.16666667  0.14772727  1.0
  Ni  Ni124  1  0.75000000  0.50000000  0.14772727  1.0
  Ni  Ni125  1  0.75000000  0.83333333  0.14772727  1.0
  Ni  Ni126  1  0.25000000  0.16666667  0.14772727  1.0
  Ni  Ni127  1  0.25000000  0.50000000  0.14772727  1.0
  Ni  Ni128  1  0.25000000  0.83333333  0.14772727  1.0
  Ni  Ni129  1  0.58333333  0.16666667  0.14772727  1.0
  Ni  Ni130  1  0.58333333  0.50000000  0.14772727  1.0
  Ni  Ni131  1  0.58333333  0.83333333  0.14772727  1.0
  Ni  Ni132  1  0.91666667  0.16666667  0.14772727  1.0
  Ni  Ni133  1  0.91666667  0.50000000  0.14772727  1.0
  Ni  Ni134  1  0.91666667  0.83333333  0.14772727  1.0
  Ni  Ni135  1  0.16666667  0.33333333  0.17045455  1.0
  Ni  Ni136  1  0.16666667  0.66666667  0.17045455  1.0
  Ni  Ni137  1  0.16666667  1.00000000  0.17045455  1.0
  Ni  Ni138  1  0.50000000  0.33333333  0.17045455  1.0
  Ni  Ni139  1  0.50000000  0.66666667  0.17045455  1.0
  Ni  Ni140  1  0.50000000  1.00000000  0.17045455  1.0
  Ni  Ni141  1  0.83333333  0.33333333  0.17045455  1.0
  Ni  Ni142  1  0.83333333  0.66666667  0.17045455  1.0
  Ni  Ni143  1  0.83333333  1.00000000  0.17045455  1.0
  Zn  Zn144  1  0.00000000  0.00000000  0.21590909  1.0
  Zn  Zn145  1  0.00000000  0.33333333  0.21590909  1.0
  Zn  Zn146  1  0.00000000  0.66666667  0.21590909  1.0
  Zn  Zn147  1  0.33333333  0.00000000  0.21590909  1.0
  Zn  Zn148  1  0.33333333  0.33333333  0.21590909  1.0
  Zn  Zn149  1  0.33333333  0.66666667  0.21590909  1.0
  Zn  Zn150  1  0.66666667  0.00000000  0.21590909  1.0
  Zn  Zn151  1  0.66666667  0.33333333  0.21590909  1.0
  Zn  Zn152  1  0.66666667  0.66666667  0.21590909  1.0
  Ni  Ni153  1  0.08333333  0.16666667  0.19318182  1.0
  Ni  Ni154  1  0.08333333  0.50000000  0.19318182  1.0
  Ni  Ni155  1  0.08333333  0.83333333  0.19318182  1.0
  Ni  Ni156  1  0.41666667  0.16666667  0.19318182  1.0
  Ni  Ni157  1  0.41666667  0.50000000  0.19318182  1.0
  Ni  Ni158  1  0.41666667  0.83333333  0.19318182  1.0
  Ni  Ni159  1  0.75000000  0.16666667  0.19318182  1.0
  Ni  Ni160  1  0.75000000  0.50000000  0.19318182  1.0
  Ni  Ni161  1  0.75000000  0.83333333  0.19318182  1.0
  Ni  Ni162  1  0.25000000  0.16666667  0.19318182  1.0
  Ni  Ni163  1  0.25000000  0.50000000  0.19318182  1.0
  Ni  Ni164  1  0.25000000  0.83333333  0.19318182  1.0
  Ni  Ni165  1  0.58333333  0.16666667  0.19318182  1.0
  Ni  Ni166  1  0.58333333  0.50000000  0.19318182  1.0
  Ni  Ni167  1  0.58333333  0.83333333  0.19318182  1.0
  Ni  Ni168  1  0.91666667  0.16666667  0.19318182  1.0
  Ni  Ni169  1  0.91666667  0.50000000  0.19318182  1.0
  Ni  Ni170  1  0.91666667  0.83333333  0.19318182  1.0
  Ni  Ni171  1  0.16666667  0.33333333  0.21590909  1.0
  Ni  Ni172  1  0.16666667  0.66666667  0.21590909  1.0
  Ni  Ni173  1  0.16666667  1.00000000  0.21590909  1.0
  Ni  Ni174  1  0.50000000  0.33333333  0.21590909  1.0
  Ni  Ni175  1  0.50000000  0.66666667  0.21590909  1.0
  Ni  Ni176  1  0.50000000  1.00000000  0.21590909  1.0
  Ni  Ni177  1  0.83333333  0.33333333  0.21590909  1.0
  Ni  Ni178  1  0.83333333  0.66666667  0.21590909  1.0
  Ni  Ni179  1  0.83333333  1.00000000  0.21590909  1.0
  Zn  Zn180  1  0.00000000  0.00000000  0.26136364  1.0
  Zn  Zn181  1  0.00000000  0.33333333  0.26136364  1.0
  Zn  Zn182  1  0.00000000  0.66666667  0.26136364  1.0
  Zn  Zn183  1  0.33333333  0.00000000  0.26136364  1.0
  Zn  Zn184  1  0.33333333  0.33333333  0.26136364  1.0
  Zn  Zn185  1  0.33333333  0.66666667  0.26136364  1.0
  Zn  Zn186  1  0.66666667  0.00000000  0.26136364  1.0
  Zn  Zn187  1  0.66666667  0.33333333  0.26136364  1.0
  Zn  Zn188  1  0.66666667  0.66666667  0.26136364  1.0
  Ni  Ni189  1  0.08333333  0.16666667  0.23863636  1.0
  Ni  Ni190  1  0.08333333  0.50000000  0.23863636  1.0
  Ni  Ni191  1  0.08333333  0.83333333  0.23863636  1.0
  Ni  Ni192  1  0.41666667  0.16666667  0.23863636  1.0
  Ni  Ni193  1  0.41666667  0.50000000  0.23863636  1.0
  Ni  Ni194  1  0.41666667  0.83333333  0.23863636  1.0
  Ni  Ni195  1  0.75000000  0.16666667  0.23863636  1.0
  Ni  Ni196  1  0.75000000  0.50000000  0.23863636  1.0
  Ni  Ni197  1  0.75000000  0.83333333  0.23863636  1.0
  Ni  Ni198  1  0.25000000  0.16666667  0.23863636  1.0
  Ni  Ni199  1  0.25000000  0.50000000  0.23863636  1.0
  Ni  Ni200  1  0.25000000  0.83333333  0.23863636  1.0
  Ni  Ni201  1  0.58333333  0.16666667  0.23863636  1.0
  Ni  Ni202  1  0.58333333  0.50000000  0.23863636  1.0
  Ni  Ni203  1  0.58333333  0.83333333  0.23863636  1.0
  Ni  Ni204  1  0.91666667  0.16666667  0.23863636  1.0
  Ni  Ni205  1  0.91666667  0.50000000  0.23863636  1.0
  Ni  Ni206  1  0.91666667  0.83333333  0.23863636  1.0
  Ni  Ni207  1  0.16666667  0.33333333  0.26136364  1.0
  Ni  Ni208  1  0.16666667  0.66666667  0.26136364  1.0
  Ni  Ni209  1  0.16666667  1.00000000  0.26136364  1.0
  Ni  Ni210  1  0.50000000  0.33333333  0.26136364  1.0
  Ni  Ni211  1  0.50000000  0.66666667  0.26136364  1.0
  Ni  Ni212  1  0.50000000  1.00000000  0.26136364  1.0
  Ni  Ni213  1  0.83333333  0.33333333  0.26136364  1.0
  Ni  Ni214  1  0.83333333  0.66666667  0.26136364  1.0
  Ni  Ni215  1  0.83333333  1.00000000  0.26136364  1.0
  Zn  Zn216  1  0.00000000  0.00000000  0.30681818  1.0
  Zn  Zn217  1  0.00000000  0.33333333  0.30681818  1.0
  Zn  Zn218  1  0.00000000  0.66666667  0.30681818  1.0
  Zn  Zn219  1  0.33333333  0.00000000  0.30681818  1.0
  Zn  Zn220  1  0.33333333  0.33333333  0.30681818  1.0
  Zn  Zn221  1  0.33333333  0.66666667  0.30681818  1.0
  Zn  Zn222  1  0.66666667  0.00000000  0.30681818  1.0
  Zn  Zn223  1  0.66666667  0.33333333  0.30681818  1.0
  Zn  Zn224  1  0.66666667  0.66666667  0.30681818  1.0
  Ni  Ni225  1  0.08333333  0.16666667  0.28409091  1.0
  Ni  Ni226  1  0.08333333  0.50000000  0.28409091  1.0
  Ni  Ni227  1  0.08333333  0.83333333  0.28409091  1.0
  Ni  Ni228  1  0.41666667  0.16666667  0.28409091  1.0
  Ni  Ni229  1  0.41666667  0.50000000  0.28409091  1.0
  Ni  Ni230  1  0.41666667  0.83333333  0.28409091  1.0
  Ni  Ni231  1  0.75000000  0.16666667  0.28409091  1.0
  Ni  Ni232  1  0.75000000  0.50000000  0.28409091  1.0
  Ni  Ni233  1  0.75000000  0.83333333  0.28409091  1.0
  Ni  Ni234  1  0.25000000  0.16666667  0.28409091  1.0
  Ni  Ni235  1  0.25000000  0.50000000  0.28409091  1.0
  Ni  Ni236  1  0.25000000  0.83333333  0.28409091  1.0
  Ni  Ni237  1  0.58333333  0.16666667  0.28409091  1.0
  Ni  Ni238  1  0.58333333  0.50000000  0.28409091  1.0
  Ni  Ni239  1  0.58333333  0.83333333  0.28409091  1.0
  Ni  Ni240  1  0.91666667  0.16666667  0.28409091  1.0
  Ni  Ni241  1  0.91666667  0.50000000  0.28409091  1.0
  Ni  Ni242  1  0.91666667  0.83333333  0.28409091  1.0
  Ni  Ni243  1  0.16666667  0.33333333  0.30681818  1.0
  Ni  Ni244  1  0.16666667  0.66666667  0.30681818  1.0
  Ni  Ni245  1  0.16666667  1.00000000  0.30681818  1.0
  Ni  Ni246  1  0.50000000  0.33333333  0.30681818  1.0
  Ni  Ni247  1  0.50000000  0.66666667  0.30681818  1.0
  Ni  Ni248  1  0.50000000  1.00000000  0.30681818  1.0
  Ni  Ni249  1  0.83333333  0.33333333  0.30681818  1.0
  Ni  Ni250  1  0.83333333  0.66666667  0.30681818  1.0
  Ni  Ni251  1  0.83333333  1.00000000  0.30681818  1.0
  Zn  Zn252  1  0.00000000  0.00000000  0.35227273  1.0
  Zn  Zn253  1  0.00000000  0.33333333  0.35227273  1.0
  Zn  Zn254  1  0.00000000  0.66666667  0.35227273  1.0
  Zn  Zn255  1  0.33333333  0.00000000  0.35227273  1.0
  Zn  Zn256  1  0.33333333  0.33333333  0.35227273  1.0
  Zn  Zn257  1  0.33333333  0.66666667  0.35227273  1.0
  Zn  Zn258  1  0.66666667  0.00000000  0.35227273  1.0
  Zn  Zn259  1  0.66666667  0.33333333  0.35227273  1.0
  Zn  Zn260  1  0.66666667  0.66666667  0.35227273  1.0
  Ni  Ni261  1  0.08333333  0.16666667  0.32954545  1.0
  Ni  Ni262  1  0.08333333  0.50000000  0.32954545  1.0
  Ni  Ni263  1  0.08333333  0.83333333  0.32954545  1.0
  Ni  Ni264  1  0.41666667  0.16666667  0.32954545  1.0
  Ni  Ni265  1  0.41666667  0.50000000  0.32954545  1.0
  Ni  Ni266  1  0.41666667  0.83333333  0.32954545  1.0
  Ni  Ni267  1  0.75000000  0.16666667  0.32954545  1.0
  Ni  Ni268  1  0.75000000  0.50000000  0.32954545  1.0
  Ni  Ni269  1  0.75000000  0.83333333  0.32954545  1.0
  Ni  Ni270  1  0.25000000  0.16666667  0.32954545  1.0
  Ni  Ni271  1  0.25000000  0.50000000  0.32954545  1.0
  Ni  Ni272  1  0.25000000  0.83333333  0.32954545  1.0
  Ni  Ni273  1  0.58333333  0.16666667  0.32954545  1.0
  Ni  Ni274  1  0.58333333  0.50000000  0.32954545  1.0
  Ni  Ni275  1  0.58333333  0.83333333  0.32954545  1.0
  Ni  Ni276  1  0.91666667  0.16666667  0.32954545  1.0
  Ni  Ni277  1  0.91666667  0.50000000  0.32954545  1.0
  Ni  Ni278  1  0.91666667  0.83333333  0.32954545  1.0
  Ni  Ni279  1  0.16666667  0.33333333  0.35227273  1.0
  Ni  Ni280  1  0.16666667  0.66666667  0.35227273  1.0
  Ni  Ni281  1  0.16666667  1.00000000  0.35227273  1.0
  Ni  Ni282  1  0.50000000  0.33333333  0.35227273  1.0
  Ni  Ni283  1  0.50000000  0.66666667  0.35227273  1.0
  Ni  Ni284  1  0.50000000  1.00000000  0.35227273  1.0
  Ni  Ni285  1  0.83333333  0.33333333  0.35227273  1.0
  Ni  Ni286  1  0.83333333  0.66666667  0.35227273  1.0
  Ni  Ni287  1  0.83333333  1.00000000  0.35227273  1.0
  Zn  Zn288  1  0.00000000  0.00000000  0.39772727  1.0
  Zn  Zn289  1  0.00000000  0.33333333  0.39772727  1.0
  Zn  Zn290  1  0.00000000  0.66666667  0.39772727  1.0
  Zn  Zn291  1  0.33333333  0.00000000  0.39772727  1.0
  Zn  Zn292  1  0.33333333  0.33333333  0.39772727  1.0
  Zn  Zn293  1  0.33333333  0.66666667  0.39772727  1.0
  Zn  Zn294  1  0.66666667  0.00000000  0.39772727  1.0
  Zn  Zn295  1  0.66666667  0.33333333  0.39772727  1.0
  Zn  Zn296  1  0.66666667  0.66666667  0.39772727  1.0
  Ni  Ni297  1  0.08333333  0.16666667  0.37500000  1.0
  Ni  Ni298  1  0.08333333  0.50000000  0.37500000  1.0
  Ni  Ni299  1  0.08333333  0.83333333  0.37500000  1.0
  Ni  Ni300  1  0.41666667  0.16666667  0.37500000  1.0
  Ni  Ni301  1  0.41666667  0.50000000  0.37500000  1.0
  Ni  Ni302  1  0.41666667  0.83333333  0.37500000  1.0
  Ni  Ni303  1  0.75000000  0.16666667  0.37500000  1.0
  Ni  Ni304  1  0.75000000  0.50000000  0.37500000  1.0
  Ni  Ni305  1  0.75000000  0.83333333  0.37500000  1.0
  Ni  Ni306  1  0.25000000  0.16666667  0.37500000  1.0
  Ni  Ni307  1  0.25000000  0.50000000  0.37500000  1.0
  Ni  Ni308  1  0.25000000  0.83333333  0.37500000  1.0
  Ni  Ni309  1  0.58333333  0.16666667  0.37500000  1.0
  Ni  Ni310  1  0.58333333  0.50000000  0.37500000  1.0
  Ni  Ni311  1  0.58333333  0.83333333  0.37500000  1.0
  Ni  Ni312  1  0.91666667  0.16666667  0.37500000  1.0
  Ni  Ni313  1  0.91666667  0.50000000  0.37500000  1.0
  Ni  Ni314  1  0.91666667  0.83333333  0.37500000  1.0
  Ni  Ni315  1  0.16666667  0.33333333  0.39772727  1.0
  Ni  Ni316  1  0.16666667  0.66666667  0.39772727  1.0
  Ni  Ni317  1  0.16666667  1.00000000  0.39772727  1.0
  Ni  Ni318  1  0.50000000  0.33333333  0.39772727  1.0
  Ni  Ni319  1  0.50000000  0.66666667  0.39772727  1.0
  Ni  Ni320  1  0.50000000  1.00000000  0.39772727  1.0
  Ni  Ni321  1  0.83333333  0.33333333  0.39772727  1.0
  Ni  Ni322  1  0.83333333  0.66666667  0.39772727  1.0
  Ni  Ni323  1  0.83333333  1.00000000  0.39772727  1.0
