# generated using pymatgen
data_ZnNi
_symmetry_space_group_name_H-M   'P 1'
_cell_length_a   8.66738400
_cell_length_b   12.25753200
_cell_length_c   37.55866400
_cell_angle_alpha   45.00000000
_cell_angle_beta   90.00000000
_cell_angle_gamma   90.00000000
_symmetry_Int_Tables_number   1
_chemical_formula_structural   ZnNi
_chemical_formula_sum   'Zn45 Ni45'
_cell_volume   2821.54000030
_cell_formula_units_Z   45
loop_
 _symmetry_equiv_pos_site_id
 _symmetry_equiv_pos_as_xyz
  1  'x, y, z'
loop_
 _atom_site_type_symbol
 _atom_site_label
 _atom_site_symmetry_multiplicity
 _atom_site_fract_x
 _atom_site_fract_y
 _atom_site_fract_z
 _atom_site_occupancy
  Zn  Zn0  1  0.16666667  0.16666667  0.03846154  1.0
  Zn  Zn1  1  0.16666667  0.50000000  0.03846154  1.0
  Zn  Zn2  1  0.16666667  0.83333333  0.03846154  1.0
  Zn  Zn3  1  0.50000000  0.16666667  0.03846154  1.0
  Zn  Zn4  1  0.50000000  0.50000000  0.03846154  1.0
  Zn  Zn5  1  0.50000000  0.83333333  0.03846154  1.0
  Zn  Zn6  1  0.83333333  0.16666667  0.03846154  1.0
  Zn  Zn7  1  0.83333333  0.50000000  0.03846154  1.0
  Zn  Zn8  1  0.83333333  0.83333333  0.03846154  1.0
  Ni  Ni9  1  0.00000000  0.00000000  0.03846154  1.0
  Ni  Ni10  1  0.00000000  0.33333333  0.03846154  1.0
  Ni  Ni11  1  0.00000000  0.66666667  0.03846154  1.0
  Ni  Ni12  1  0.33333333  0.00000000  0.03846154  1.0
  Ni  Ni13  1  0.33333333  0.33333333  0.03846154  1.0
  Ni  Ni14  1  0.33333333  0.66666667  0.03846154  1.0
  Ni  Ni15  1  0.66666667  0.00000000  0.03846154  1.0
  Ni  Ni16  1  0.66666667  0.33333333  0.03846154  1.0
  Ni  Ni17  1  0.66666667  0.66666667  0.03846154  1.0
  Zn  Zn18  1  0.16666667  0.16666667  0.11538462  1.0
  Zn  Zn19  1  0.16666667  0.50000000  0.11538462  1.0
  Zn  Zn20  1  0.16666667  0.83333333  0.11538462  1.0
  Zn  Zn21  1  0.50000000  0.16666667  0.11538462  1.0
  Zn  Zn22  1  0.50000000  0.50000000  0.11538462  1.0
  Zn  Zn23  1  0.50000000  0.83333333  0.11538462  1.0
  Zn  Zn24  1  0.83333333  0.16666667  0.11538462  1.0
  Zn  Zn25  1  0.83333333  0.50000000  0.11538462  1.0
  Zn  Zn26  1  0.83333333  0.83333333  0.11538462  1.0
  Ni  Ni27  1  0.00000000  0.00000000  0.11538462  1.0
  Ni  Ni28  1  0.00000000  0.33333333  0.11538462  1.0
  Ni  Ni29  1  0.00000000  0.66666667  0.11538462  1.0
  Ni  Ni30  1  0.33333333  0.00000000  0.11538462  1.0
  Ni  Ni31  1  0.33333333  0.33333333  0.11538462  1.0
  Ni  Ni32  1  0.33333333  0.66666667  0.11538462  1.0
  Ni  Ni33  1  0.66666667  0.00000000  0.11538462  1.0
  Ni  Ni34  1  0.66666667  0.33333333  0.11538462  1.0
  Ni  Ni35  1  0.66666667  0.66666667  0.11538462  1.0
  Zn  Zn36  1  0.16666667  0.16666667  0.19230769  1.0
  Zn  Zn37  1  0.16666667  0.50000000  0.19230769  1.0
  Zn  Zn38  1  0.16666667  0.83333333  0.19230769  1.0
  Zn  Zn39  1  0.50000000  0.16666667  0.19230769  1.0
  Zn  Zn40  1  0.50000000  0.50000000  0.19230769  1.0
  Zn  Zn41  1  0.50000000  0.83333333  0.19230769  1.0
  Zn  Zn42  1  0.83333333  0.16666667  0.19230769  1.0
  Zn  Zn43  1  0.83333333  0.50000000  0.19230769  1.0
  Zn  Zn44  1  0.83333333  0.83333333  0.19230769  1.0
  Ni  Ni45  1  0.00000000  0.00000000  0.19230769  1.0
  Ni  Ni46  1  0.00000000  0.33333333  0.19230769  1.0
  Ni  Ni47  1  0.00000000  0.66666667  0.19230769  1.0
  Ni  Ni48  1  0.33333333  0.00000000  0.19230769  1.0
  Ni  Ni49  1  0.33333333  0.33333333  0.19230769  1.0
  Ni  Ni50  1  0.33333333  0.66666667  0.19230769  1.0
  Ni  Ni51  1  0.66666667  0.00000000  0.19230769  1.0
  Ni  Ni52  1  0.66666667  0.33333333  0.19230769  1.0
  Ni  Ni53  1  0.66666667  0.66666667  0.19230769  1.0
  Zn  Zn54  1  0.16666667  0.16666667  0.26923077  1.0
  Zn  Zn55  1  0.16666667  0.50000000  0.26923077  1.0
  Zn  Zn56  1  0.16666667  0.83333333  0.26923077  1.0
  Zn  Zn57  1  0.50000000  0.16666667  0.26923077  1.0
  Zn  Zn58  1  0.50000000  0.50000000  0.26923077  1.0
  Zn  Zn59  1  0.50000000  0.83333333  0.26923077  1.0
  Zn  Zn60  1  0.83333333  0.16666667  0.26923077  1.0
  Zn  Zn61  1  0.83333333  0.50000000  0.26923077  1.0
  Zn  Zn62  1  0.83333333  0.83333333  0.26923077  1.0
  Ni  Ni63  1  0.00000000  0.00000000  0.26923077  1.0
  Ni  Ni64  1  0.00000000  0.33333333  0.26923077  1.0
  Ni  Ni65  1  0.00000000  0.66666667  0.26923077  1.0
  Ni  Ni66  1  0.33333333  0.00000000  0.26923077  1.0
  Ni  Ni67  1  0.33333333  0.33333333  0.26923077  1.0
  Ni  Ni68  1  0.33333333  0.66666667  0.26923077  1.0
  Ni  Ni69  1  0.66666667  0.00000000  0.26923077  1.0
  Ni  Ni70  1  0.66666667  0.33333333  0.26923077  1.0
  Ni  Ni71  1  0.66666667  0.66666667  0.26923077  1.0
  Zn  Zn72  1  0.16666667  0.16666667  0.34615385  1.0
  Zn  Zn73  1  0.16666667  0.50000000  0.34615385  1.0
  Zn  Zn74  1  0.16666667  0.83333333  0.34615385  1.0
  Zn  Zn75  1  0.50000000  0.16666667  0.34615385  1.0
  Zn  Zn76  1  0.50000000  0.50000000  0.34615385  1.0
  Zn  Zn77  1  0.50000000  0.83333333  0.34615385  1.0
  Zn  Zn78  1  0.83333333  0.16666667  0.34615385  1.0
  Zn  Zn79  1  0.83333333  0.50000000  0.34615385  1.0
  Zn  Zn80  1  0.83333333  0.83333333  0.34615385  1.0
  Ni  Ni81  1  0.00000000  0.00000000  0.34615385  1.0
  Ni  Ni82  1  0.00000000  0.33333333  0.34615385  1.0
  Ni  Ni83  1  0.00000000  0.66666667  0.34615385  1.0
  Ni  Ni84  1  0.33333333  0.00000000  0.34615385  1.0
  Ni  Ni85  1  0.33333333  0.33333333  0.34615385  1.0
  Ni  Ni86  1  0.33333333  0.66666667  0.34615385  1.0
  Ni  Ni87  1  0.66666667  0.00000000  0.34615385  1.0
  Ni  Ni88  1  0.66666667  0.33333333  0.34615385  1.0
  Ni  Ni89  1  0.66666667  0.66666667  0.34615385  1.0
