# generated using pymatgen
data_ZnNi
_symmetry_space_group_name_H-M   'P 1'
_cell_length_a   11.34085434
_cell_length_b   30.00508024
_cell_length_c   49.14370214
_cell_angle_alpha   55.46241621
_cell_angle_beta   120.00000000
_cell_angle_gamma   79.10660535
_symmetry_Int_Tables_number   1
_chemical_formula_structural   ZnNi
_chemical_formula_sum   'Zn90 Ni90'
_cell_volume   8938.70105126
_cell_formula_units_Z   90
loop_
 _symmetry_equiv_pos_site_id
 _symmetry_equiv_pos_as_xyz
  1  'x, y, z'
loop_
 _atom_site_type_symbol
 _atom_site_label
 _atom_site_symmetry_multiplicity
 _atom_site_fract_x
 _atom_site_fract_y
 _atom_site_fract_z
 _atom_site_occupancy
  Zn  Zn0  1  0.12500000  0.12500000  0.00480769  1.0
  Zn  Zn1  1  0.12500000  0.45833333  0.00480769  1.0
  Zn  Zn2  1  0.12500000  0.79166667  0.00480769  1.0
  Zn  Zn3  1  0.45833333  0.12500000  0.00480769  1.0
  Zn  Zn4  1  0.45833333  0.45833333  0.00480769  1.0
  Zn  Zn5  1  0.45833333  0.79166667  0.00480769  1.0
  Zn  Zn6  1  0.79166667  0.12500000  0.00480769  1.0
  Zn  Zn7  1  0.79166667  0.45833333  0.00480769  1.0
  Zn  Zn8  1  0.79166667  0.79166667  0.00480769  1.0
  Zn  Zn9  1  0.29166667  0.29166667  0.04326923  1.0
  Zn  Zn10  1  0.29166667  0.62500000  0.04326923  1.0
  Zn  Zn11  1  0.29166667  0.95833333  0.04326923  1.0
  Zn  Zn12  1  0.62500000  0.29166667  0.04326923  1.0
  Zn  Zn13  1  0.62500000  0.62500000  0.04326923  1.0
  Zn  Zn14  1  0.62500000  0.95833333  0.04326923  1.0
  Zn  Zn15  1  0.95833333  0.29166667  0.04326923  1.0
  Zn  Zn16  1  0.95833333  0.62500000  0.04326923  1.0
  Zn  Zn17  1  0.95833333  0.95833333  0.04326923  1.0
  Ni  Ni18  1  0.16666667  0.16666667  0.03365385  1.0
  Ni  Ni19  1  0.16666667  0.50000000  0.03365385  1.0
  Ni  Ni20  1  0.16666667  0.83333333  0.03365385  1.0
  Ni  Ni21  1  0.50000000  0.16666667  0.03365385  1.0
  Ni  Ni22  1  0.50000000  0.50000000  0.03365385  1.0
  Ni  Ni23  1  0.50000000  0.83333333  0.03365385  1.0
  Ni  Ni24  1  0.83333333  0.16666667  0.03365385  1.0
  Ni  Ni25  1  0.83333333  0.50000000  0.03365385  1.0
  Ni  Ni26  1  0.83333333  0.83333333  0.03365385  1.0
  Ni  Ni27  1  0.00000000  0.00000000  0.07211538  1.0
  Ni  Ni28  1  1.00000000  0.33333333  0.07211538  1.0
  Ni  Ni29  1  1.00000000  0.66666667  0.07211538  1.0
  Ni  Ni30  1  0.33333333  0.00000000  0.07211538  1.0
  Ni  Ni31  1  0.33333333  0.33333333  0.07211538  1.0
  Ni  Ni32  1  0.33333333  0.66666667  0.07211538  1.0
  Ni  Ni33  1  0.66666667  0.00000000  0.07211538  1.0
  Ni  Ni34  1  0.66666667  0.33333333  0.07211538  1.0
  Ni  Ni35  1  0.66666667  0.66666667  0.07211538  1.0
  Zn  Zn36  1  0.12500000  0.12500000  0.08173077  1.0
  Zn  Zn37  1  0.12500000  0.45833333  0.08173077  1.0
  Zn  Zn38  1  0.12500000  0.79166667  0.08173077  1.0
  Zn  Zn39  1  0.45833333  0.12500000  0.08173077  1.0
  Zn  Zn40  1  0.45833333  0.45833333  0.08173077  1.0
  Zn  Zn41  1  0.45833333  0.79166667  0.08173077  1.0
  Zn  Zn42  1  0.79166667  0.12500000  0.08173077  1.0
  Zn  Zn43  1  0.79166667  0.45833333  0.08173077  1.0
  Zn  Zn44  1  0.79166667  0.79166667  0.08173077  1.0
  Zn  Zn45  1  0.29166667  0.29166667  0.12019231  1.0
  Zn  Zn46  1  0.29166667  0.62500000  0.12019231  1.0
  Zn  Zn47  1  0.29166667  0.95833333  0.12019231  1.0
  Zn  Zn48  1  0.62500000  0.29166667  0.12019231  1.0
  Zn  Zn49  1  0.62500000  0.62500000  0.12019231  1.0
  Zn  Zn50  1  0.62500000  0.95833333  0.12019231  1.0
  Zn  Zn51  1  0.95833333  0.29166667  0.12019231  1.0
  Zn  Zn52  1  0.95833333  0.62500000  0.12019231  1.0
  Zn  Zn53  1  0.95833333  0.95833333  0.12019231  1.0
  Ni  Ni54  1  0.16666667  0.16666667  0.11057692  1.0
  Ni  Ni55  1  0.16666667  0.50000000  0.11057692  1.0
  Ni  Ni56  1  0.16666667  0.83333333  0.11057692  1.0
  Ni  Ni57  1  0.50000000  0.16666667  0.11057692  1.0
  Ni  Ni58  1  0.50000000  0.50000000  0.11057692  1.0
  Ni  Ni59  1  0.50000000  0.83333333  0.11057692  1.0
  Ni  Ni60  1  0.83333333  0.16666667  0.11057692  1.0
  Ni  Ni61  1  0.83333333  0.50000000  0.11057692  1.0
  Ni  Ni62  1  0.83333333  0.83333333  0.11057692  1.0
  Ni  Ni63  1  0.00000000  0.00000000  0.14903846  1.0
  Ni  Ni64  1  1.00000000  0.33333333  0.14903846  1.0
  Ni  Ni65  1  1.00000000  0.66666667  0.14903846  1.0
  Ni  Ni66  1  0.33333333  0.00000000  0.14903846  1.0
  Ni  Ni67  1  0.33333333  0.33333333  0.14903846  1.0
  Ni  Ni68  1  0.33333333  0.66666667  0.14903846  1.0
  Ni  Ni69  1  0.66666667  0.00000000  0.14903846  1.0
  Ni  Ni70  1  0.66666667  0.33333333  0.14903846  1.0
  Ni  Ni71  1  0.66666667  0.66666667  0.14903846  1.0
  Zn  Zn72  1  0.12500000  0.12500000  0.15865385  1.0
  Zn  Zn73  1  0.12500000  0.45833333  0.15865385  1.0
  Zn  Zn74  1  0.12500000  0.79166667  0.15865385  1.0
  Zn  Zn75  1  0.45833333  0.12500000  0.15865385  1.0
  Zn  Zn76  1  0.45833333  0.45833333  0.15865385  1.0
  Zn  Zn77  1  0.45833333  0.79166667  0.15865385  1.0
  Zn  Zn78  1  0.79166667  0.12500000  0.15865385  1.0
  Zn  Zn79  1  0.79166667  0.45833333  0.15865385  1.0
  Zn  Zn80  1  0.79166667  0.79166667  0.15865385  1.0
  Zn  Zn81  1  0.29166667  0.29166667  0.19711538  1.0
  Zn  Zn82  1  0.29166667  0.62500000  0.19711538  1.0
  Zn  Zn83  1  0.29166667  0.95833333  0.19711538  1.0
  Zn  Zn84  1  0.62500000  0.29166667  0.19711538  1.0
  Zn  Zn85  1  0.62500000  0.62500000  0.19711538  1.0
  Zn  Zn86  1  0.62500000  0.95833333  0.19711538  1.0
  Zn  Zn87  1  0.95833333  0.29166667  0.19711538  1.0
  Zn  Zn88  1  0.95833333  0.62500000  0.19711538  1.0
  Zn  Zn89  1  0.95833333  0.95833333  0.19711538  1.0
  Ni  Ni90  1  0.16666667  0.16666667  0.18750000  1.0
  Ni  Ni91  1  0.16666667  0.50000000  0.18750000  1.0
  Ni  Ni92  1  0.16666667  0.83333333  0.18750000  1.0
  Ni  Ni93  1  0.50000000  0.16666667  0.18750000  1.0
  Ni  Ni94  1  0.50000000  0.50000000  0.18750000  1.0
  Ni  Ni95  1  0.50000000  0.83333333  0.18750000  1.0
  Ni  Ni96  1  0.83333333  0.16666667  0.18750000  1.0
  Ni  Ni97  1  0.83333333  0.50000000  0.18750000  1.0
  Ni  Ni98  1  0.83333333  0.83333333  0.18750000  1.0
  Ni  Ni99  1  0.00000000  0.00000000  0.22596154  1.0
  Ni  Ni100  1  1.00000000  0.33333333  0.22596154  1.0
  Ni  Ni101  1  1.00000000  0.66666667  0.22596154  1.0
  Ni  Ni102  1  0.33333333  0.00000000  0.22596154  1.0
  Ni  Ni103  1  0.33333333  0.33333333  0.22596154  1.0
  Ni  Ni104  1  0.33333333  0.66666667  0.22596154  1.0
  Ni  Ni105  1  0.66666667  0.00000000  0.22596154  1.0
  Ni  Ni106  1  0.66666667  0.33333333  0.22596154  1.0
  Ni  Ni107  1  0.66666667  0.66666667  0.22596154  1.0
  Zn  Zn108  1  0.12500000  0.12500000  0.23557692  1.0
  Zn  Zn109  1  0.12500000  0.45833333  0.23557692  1.0
  Zn  Zn110  1  0.12500000  0.79166667  0.23557692  1.0
  Zn  Zn111  1  0.45833333  0.12500000  0.23557692  1.0
  Zn  Zn112  1  0.45833333  0.45833333  0.23557692  1.0
  Zn  Zn113  1  0.45833333  0.79166667  0.23557692  1.0
  Zn  Zn114  1  0.79166667  0.12500000  0.23557692  1.0
  Zn  Zn115  1  0.79166667  0.45833333  0.23557692  1.0
  Zn  Zn116  1  0.79166667  0.79166667  0.23557692  1.0
  Zn  Zn117  1  0.29166667  0.29166667  0.27403846  1.0
  Zn  Zn118  1  0.29166667  0.62500000  0.27403846  1.0
  Zn  Zn119  1  0.29166667  0.95833333  0.27403846  1.0
  Zn  Zn120  1  0.62500000  0.29166667  0.27403846  1.0
  Zn  Zn121  1  0.62500000  0.62500000  0.27403846  1.0
  Zn  Zn122  1  0.62500000  0.95833333  0.27403846  1.0
  Zn  Zn123  1  0.95833333  0.29166667  0.27403846  1.0
  Zn  Zn124  1  0.95833333  0.62500000  0.27403846  1.0
  Zn  Zn125  1  0.95833333  0.95833333  0.27403846  1.0
  Ni  Ni126  1  0.16666667  0.16666667  0.26442308  1.0
  Ni  Ni127  1  0.16666667  0.50000000  0.26442308  1.0
  Ni  Ni128  1  0.16666667  0.83333333  0.26442308  1.0
  Ni  Ni129  1  0.50000000  0.16666667  0.26442308  1.0
  Ni  Ni130  1  0.50000000  0.50000000  0.26442308  1.0
  Ni  Ni131  1  0.50000000  0.83333333  0.26442308  1.0
  Ni  Ni132  1  0.83333333  0.16666667  0.26442308  1.0
  Ni  Ni133  1  0.83333333  0.50000000  0.26442308  1.0
  Ni  Ni134  1  0.83333333  0.83333333  0.26442308  1.0
  Ni  Ni135  1  0.00000000  0.00000000  0.30288462  1.0
  Ni  Ni136  1  1.00000000  0.33333333  0.30288462  1.0
  Ni  Ni137  1  1.00000000  0.66666667  0.30288462  1.0
  Ni  Ni138  1  0.33333333  0.00000000  0.30288462  1.0
  Ni  Ni139  1  0.33333333  0.33333333  0.30288462  1.0
  Ni  Ni140  1  0.33333333  0.66666667  0.30288462  1.0
  Ni  Ni141  1  0.66666667  0.00000000  0.30288462  1.0
  Ni  Ni142  1  0.66666667  0.33333333  0.30288462  1.0
  Ni  Ni143  1  0.66666667  0.66666667  0.30288462  1.0
  Zn  Zn144  1  0.12500000  0.12500000  0.31250000  1.0
  Zn  Zn145  1  0.12500000  0.45833333  0.31250000  1.0
  Zn  Zn146  1  0.12500000  0.79166667  0.31250000  1.0
  Zn  Zn147  1  0.45833333  0.12500000  0.31250000  1.0
  Zn  Zn148  1  0.45833333  0.45833333  0.31250000  1.0
  Zn  Zn149  1  0.45833333  0.79166667  0.31250000  1.0
  Zn  Zn150  1  0.79166667  0.12500000  0.31250000  1.0
  Zn  Zn151  1  0.79166667  0.45833333  0.31250000  1.0
  Zn  Zn152  1  0.79166667  0.79166667  0.31250000  1.0
  Zn  Zn153  1  0.29166667  0.29166667  0.35096154  1.0
  Zn  Zn154  1  0.29166667  0.62500000  0.35096154  1.0
  Zn  Zn155  1  0.29166667  0.95833333  0.35096154  1.0
  Zn  Zn156  1  0.62500000  0.29166667  0.35096154  1.0
  Zn  Zn157  1  0.62500000  0.62500000  0.35096154  1.0
  Zn  Zn158  1  0.62500000  0.95833333  0.35096154  1.0
  Zn  Zn159  1  0.95833333  0.29166667  0.35096154  1.0
  Zn  Zn160  1  0.95833333  0.62500000  0.35096154  1.0
  Zn  Zn161  1  0.95833333  0.95833333  0.35096154  1.0
  Ni  Ni162  1  0.16666667  0.16666667  0.34134615  1.0
  Ni  Ni163  1  0.16666667  0.50000000  0.34134615  1.0
  Ni  Ni164  1  0.16666667  0.83333333  0.34134615  1.0
  Ni  Ni165  1  0.50000000  0.16666667  0.34134615  1.0
  Ni  Ni166  1  0.50000000  0.50000000  0.34134615  1.0
  Ni  Ni167  1  0.50000000  0.83333333  0.34134615  1.0
  Ni  Ni168  1  0.83333333  0.16666667  0.34134615  1.0
  Ni  Ni169  1  0.83333333  0.50000000  0.34134615  1.0
  Ni  Ni170  1  0.83333333  0.83333333  0.34134615  1.0
  Ni  Ni171  1  0.00000000  0.00000000  0.37980769  1.0
  Ni  Ni172  1  1.00000000  0.33333333  0.37980769  1.0
  Ni  Ni173  1  1.00000000  0.66666667  0.37980769  1.0
  Ni  Ni174  1  0.33333333  0.00000000  0.37980769  1.0
  Ni  Ni175  1  0.33333333  0.33333333  0.37980769  1.0
  Ni  Ni176  1  0.33333333  0.66666667  0.37980769  1.0
  Ni  Ni177  1  0.66666667  0.00000000  0.37980769  1.0
  Ni  Ni178  1  0.66666667  0.33333333  0.37980769  1.0
  Ni  Ni179  1  0.66666667  0.66666667  0.37980769  1.0
