# generated using pymatgen
data_ZnNi3
_symmetry_space_group_name_H-M   'P 1'
_cell_length_a   15.14221371
_cell_length_b   18.54534859
_cell_length_c   29.21396605
_cell_angle_alpha   94.04469124
_cell_angle_beta   90.00000000
_cell_angle_gamma   90.00000000
_symmetry_Int_Tables_number   1
_chemical_formula_structural   ZnNi3
_chemical_formula_sum   'Zn72 Ni216'
_cell_volume   8183.36386035
_cell_formula_units_Z   72
loop_
 _symmetry_equiv_pos_site_id
 _symmetry_equiv_pos_as_xyz
  1  'x, y, z'
loop_
 _atom_site_type_symbol
 _atom_site_label
 _atom_site_symmetry_multiplicity
 _atom_site_fract_x
 _atom_site_fract_y
 _atom_site_fract_z
 _atom_site_occupancy
  Ni  Ni0  1  0.00000000  0.20416667  0.96250000  1.0
  Ni  Ni1  1  0.00000000  0.53750000  0.96250000  1.0
  Ni  Ni2  1  0.00000000  0.87083333  0.96250000  1.0
  Ni  Ni3  1  0.33333333  0.20416667  0.96250000  1.0
  Ni  Ni4  1  0.33333333  0.53750000  0.96250000  1.0
  Ni  Ni5  1  0.33333333  0.87083333  0.96250000  1.0
  Ni  Ni6  1  0.66666667  0.20416667  0.96250000  1.0
  Ni  Ni7  1  0.66666667  0.53750000  0.96250000  1.0
  Ni  Ni8  1  0.66666667  0.87083333  0.96250000  1.0
  Ni  Ni9  1  0.16666667  0.08750000  0.91250000  1.0
  Ni  Ni10  1  0.16666667  0.42083333  0.91250000  1.0
  Ni  Ni11  1  0.16666667  0.75416667  0.91250000  1.0
  Ni  Ni12  1  0.50000000  0.08750000  0.91250000  1.0
  Ni  Ni13  1  0.50000000  0.42083333  0.91250000  1.0
  Ni  Ni14  1  0.50000000  0.75416667  0.91250000  1.0
  Ni  Ni15  1  0.83333333  0.08750000  0.91250000  1.0
  Ni  Ni16  1  0.83333333  0.42083333  0.91250000  1.0
  Ni  Ni17  1  0.83333333  0.75416667  0.91250000  1.0
  Ni  Ni18  1  0.25000000  0.31250000  0.93750000  1.0
  Ni  Ni19  1  0.25000000  0.64583333  0.93750000  1.0
  Ni  Ni20  1  0.25000000  0.97916667  0.93750000  1.0
  Ni  Ni21  1  0.58333333  0.31250000  0.93750000  1.0
  Ni  Ni22  1  0.58333333  0.64583333  0.93750000  1.0
  Ni  Ni23  1  0.58333333  0.97916667  0.93750000  1.0
  Ni  Ni24  1  0.91666667  0.31250000  0.93750000  1.0
  Ni  Ni25  1  0.91666667  0.64583333  0.93750000  1.0
  Ni  Ni26  1  0.91666667  0.97916667  0.93750000  1.0
  Ni  Ni27  1  0.08333333  0.09583333  0.98750000  1.0
  Ni  Ni28  1  0.08333333  0.42916667  0.98750000  1.0
  Ni  Ni29  1  0.08333333  0.76250000  0.98750000  1.0
  Ni  Ni30  1  0.41666667  0.09583333  0.98750000  1.0
  Ni  Ni31  1  0.41666667  0.42916667  0.98750000  1.0
  Ni  Ni32  1  0.41666667  0.76250000  0.98750000  1.0
  Ni  Ni33  1  0.75000000  0.09583333  0.98750000  1.0
  Ni  Ni34  1  0.75000000  0.42916667  0.98750000  1.0
  Ni  Ni35  1  0.75000000  0.76250000  0.98750000  1.0
  Ni  Ni36  1  0.08333333  0.31250000  0.93750000  1.0
  Ni  Ni37  1  0.08333333  0.64583333  0.93750000  1.0
  Ni  Ni38  1  0.08333333  0.97916667  0.93750000  1.0
  Ni  Ni39  1  0.41666667  0.31250000  0.93750000  1.0
  Ni  Ni40  1  0.41666667  0.64583333  0.93750000  1.0
  Ni  Ni41  1  0.41666667  0.97916667  0.93750000  1.0
  Ni  Ni42  1  0.75000000  0.31250000  0.93750000  1.0
  Ni  Ni43  1  0.75000000  0.64583333  0.93750000  1.0
  Ni  Ni44  1  0.75000000  0.97916667  0.93750000  1.0
  Ni  Ni45  1  0.25000000  0.09583333  0.98750000  1.0
  Ni  Ni46  1  0.25000000  0.42916667  0.98750000  1.0
  Ni  Ni47  1  0.25000000  0.76250000  0.98750000  1.0
  Ni  Ni48  1  0.58333333  0.09583333  0.98750000  1.0
  Ni  Ni49  1  0.58333333  0.42916667  0.98750000  1.0
  Ni  Ni50  1  0.58333333  0.76250000  0.98750000  1.0
  Ni  Ni51  1  0.91666667  0.09583333  0.98750000  1.0
  Ni  Ni52  1  0.91666667  0.42916667  0.98750000  1.0
  Ni  Ni53  1  0.91666667  0.76250000  0.98750000  1.0
  Ni  Ni54  1  0.00000000  0.30416667  0.86250000  1.0
  Ni  Ni55  1  0.00000000  0.63750000  0.86250000  1.0
  Ni  Ni56  1  0.00000000  0.97083333  0.86250000  1.0
  Ni  Ni57  1  0.33333333  0.30416667  0.86250000  1.0
  Ni  Ni58  1  0.33333333  0.63750000  0.86250000  1.0
  Ni  Ni59  1  0.33333333  0.97083333  0.86250000  1.0
  Ni  Ni60  1  0.66666667  0.30416667  0.86250000  1.0
  Ni  Ni61  1  0.66666667  0.63750000  0.86250000  1.0
  Ni  Ni62  1  0.66666667  0.97083333  0.86250000  1.0
  Ni  Ni63  1  0.16666667  0.18750000  0.81250000  1.0
  Ni  Ni64  1  0.16666667  0.52083333  0.81250000  1.0
  Ni  Ni65  1  0.16666667  0.85416667  0.81250000  1.0
  Ni  Ni66  1  0.50000000  0.18750000  0.81250000  1.0
  Ni  Ni67  1  0.50000000  0.52083333  0.81250000  1.0
  Ni  Ni68  1  0.50000000  0.85416667  0.81250000  1.0
  Ni  Ni69  1  0.83333333  0.18750000  0.81250000  1.0
  Ni  Ni70  1  0.83333333  0.52083333  0.81250000  1.0
  Ni  Ni71  1  0.83333333  0.85416667  0.81250000  1.0
  Ni  Ni72  1  0.25000000  0.07916667  0.83750000  1.0
  Ni  Ni73  1  0.25000000  0.41250000  0.83750000  1.0
  Ni  Ni74  1  0.25000000  0.74583333  0.83750000  1.0
  Ni  Ni75  1  0.58333333  0.07916667  0.83750000  1.0
  Ni  Ni76  1  0.58333333  0.41250000  0.83750000  1.0
  Ni  Ni77  1  0.58333333  0.74583333  0.83750000  1.0
  Ni  Ni78  1  0.91666667  0.07916667  0.83750000  1.0
  Ni  Ni79  1  0.91666667  0.41250000  0.83750000  1.0
  Ni  Ni80  1  0.91666667  0.74583333  0.83750000  1.0
  Ni  Ni81  1  0.08333333  0.19583333  0.88750000  1.0
  Ni  Ni82  1  0.08333333  0.52916667  0.88750000  1.0
  Ni  Ni83  1  0.08333333  0.86250000  0.88750000  1.0
  Ni  Ni84  1  0.41666667  0.19583333  0.88750000  1.0
  Ni  Ni85  1  0.41666667  0.52916667  0.88750000  1.0
  Ni  Ni86  1  0.41666667  0.86250000  0.88750000  1.0
  Ni  Ni87  1  0.75000000  0.19583333  0.88750000  1.0
  Ni  Ni88  1  0.75000000  0.52916667  0.88750000  1.0
  Ni  Ni89  1  0.75000000  0.86250000  0.88750000  1.0
  Ni  Ni90  1  0.08333333  0.07916667  0.83750000  1.0
  Ni  Ni91  1  0.08333333  0.41250000  0.83750000  1.0
  Ni  Ni92  1  0.08333333  0.74583333  0.83750000  1.0
  Ni  Ni93  1  0.41666667  0.07916667  0.83750000  1.0
  Ni  Ni94  1  0.41666667  0.41250000  0.83750000  1.0
  Ni  Ni95  1  0.41666667  0.74583333  0.83750000  1.0
  Ni  Ni96  1  0.75000000  0.07916667  0.83750000  1.0
  Ni  Ni97  1  0.75000000  0.41250000  0.83750000  1.0
  Ni  Ni98  1  0.75000000  0.74583333  0.83750000  1.0
  Ni  Ni99  1  0.25000000  0.19583333  0.88750000  1.0
  Ni  Ni100  1  0.25000000  0.52916667  0.88750000  1.0
  Ni  Ni101  1  0.25000000  0.86250000  0.88750000  1.0
  Ni  Ni102  1  0.58333333  0.19583333  0.88750000  1.0
  Ni  Ni103  1  0.58333333  0.52916667  0.88750000  1.0
  Ni  Ni104  1  0.58333333  0.86250000  0.88750000  1.0
  Ni  Ni105  1  0.91666667  0.19583333  0.88750000  1.0
  Ni  Ni106  1  0.91666667  0.52916667  0.88750000  1.0
  Ni  Ni107  1  0.91666667  0.86250000  0.88750000  1.0
  Ni  Ni108  1  0.00000000  0.07083333  0.76250000  1.0
  Ni  Ni109  1  0.00000000  0.40416667  0.76250000  1.0
  Ni  Ni110  1  0.00000000  0.73750000  0.76250000  1.0
  Ni  Ni111  1  0.33333333  0.07083333  0.76250000  1.0
  Ni  Ni112  1  0.33333333  0.40416667  0.76250000  1.0
  Ni  Ni113  1  0.33333333  0.73750000  0.76250000  1.0
  Ni  Ni114  1  0.66666667  0.07083333  0.76250000  1.0
  Ni  Ni115  1  0.66666667  0.40416667  0.76250000  1.0
  Ni  Ni116  1  0.66666667  0.73750000  0.76250000  1.0
  Ni  Ni117  1  0.16666667  0.28750000  0.71250000  1.0
  Ni  Ni118  1  0.16666667  0.62083333  0.71250000  1.0
  Ni  Ni119  1  0.16666667  0.95416667  0.71250000  1.0
  Ni  Ni120  1  0.50000000  0.28750000  0.71250000  1.0
  Ni  Ni121  1  0.50000000  0.62083333  0.71250000  1.0
  Ni  Ni122  1  0.50000000  0.95416667  0.71250000  1.0
  Ni  Ni123  1  0.83333333  0.28750000  0.71250000  1.0
  Ni  Ni124  1  0.83333333  0.62083333  0.71250000  1.0
  Ni  Ni125  1  0.83333333  0.95416667  0.71250000  1.0
  Ni  Ni126  1  0.25000000  0.17916667  0.73750000  1.0
  Ni  Ni127  1  0.25000000  0.51250000  0.73750000  1.0
  Ni  Ni128  1  0.25000000  0.84583333  0.73750000  1.0
  Ni  Ni129  1  0.58333333  0.17916667  0.73750000  1.0
  Ni  Ni130  1  0.58333333  0.51250000  0.73750000  1.0
  Ni  Ni131  1  0.58333333  0.84583333  0.73750000  1.0
  Ni  Ni132  1  0.91666667  0.17916667  0.73750000  1.0
  Ni  Ni133  1  0.91666667  0.51250000  0.73750000  1.0
  Ni  Ni134  1  0.91666667  0.84583333  0.73750000  1.0
  Ni  Ni135  1  0.08333333  0.29583333  0.78750000  1.0
  Ni  Ni136  1  0.08333333  0.62916667  0.78750000  1.0
  Ni  Ni137  1  0.08333333  0.96250000  0.78750000  1.0
  Ni  Ni138  1  0.41666667  0.29583333  0.78750000  1.0
  Ni  Ni139  1  0.41666667  0.62916667  0.78750000  1.0
  Ni  Ni140  1  0.41666667  0.96250000  0.78750000  1.0
  Ni  Ni141  1  0.75000000  0.29583333  0.78750000  1.0
  Ni  Ni142  1  0.75000000  0.62916667  0.78750000  1.0
  Ni  Ni143  1  0.75000000  0.96250000  0.78750000  1.0
  Ni  Ni144  1  0.08333333  0.17916667  0.73750000  1.0
  Ni  Ni145  1  0.08333333  0.51250000  0.73750000  1.0
  Ni  Ni146  1  0.08333333  0.84583333  0.73750000  1.0
  Ni  Ni147  1  0.41666667  0.17916667  0.73750000  1.0
  Ni  Ni148  1  0.41666667  0.51250000  0.73750000  1.0
  Ni  Ni149  1  0.41666667  0.84583333  0.73750000  1.0
  Ni  Ni150  1  0.75000000  0.17916667  0.73750000  1.0
  Ni  Ni151  1  0.75000000  0.51250000  0.73750000  1.0
  Ni  Ni152  1  0.75000000  0.84583333  0.73750000  1.0
  Ni  Ni153  1  0.25000000  0.29583333  0.78750000  1.0
  Ni  Ni154  1  0.25000000  0.62916667  0.78750000  1.0
  Ni  Ni155  1  0.25000000  0.96250000  0.78750000  1.0
  Ni  Ni156  1  0.58333333  0.29583333  0.78750000  1.0
  Ni  Ni157  1  0.58333333  0.62916667  0.78750000  1.0
  Ni  Ni158  1  0.58333333  0.96250000  0.78750000  1.0
  Ni  Ni159  1  0.91666667  0.29583333  0.78750000  1.0
  Ni  Ni160  1  0.91666667  0.62916667  0.78750000  1.0
  Ni  Ni161  1  0.91666667  0.96250000  0.78750000  1.0
  Ni  Ni162  1  0.00000000  0.17083333  0.66250000  1.0
  Ni  Ni163  1  0.00000000  0.50416667  0.66250000  1.0
  Ni  Ni164  1  0.00000000  0.83750000  0.66250000  1.0
  Ni  Ni165  1  0.33333333  0.17083333  0.66250000  1.0
  Ni  Ni166  1  0.33333333  0.50416667  0.66250000  1.0
  Ni  Ni167  1  0.33333333  0.83750000  0.66250000  1.0
  Ni  Ni168  1  0.66666667  0.17083333  0.66250000  1.0
  Ni  Ni169  1  0.66666667  0.50416667  0.66250000  1.0
  Ni  Ni170  1  0.66666667  0.83750000  0.66250000  1.0
  Ni  Ni171  1  0.16666667  0.05416667  0.61250000  1.0
  Ni  Ni172  1  0.16666667  0.38750000  0.61250000  1.0
  Ni  Ni173  1  0.16666667  0.72083333  0.61250000  1.0
  Ni  Ni174  1  0.50000000  0.05416667  0.61250000  1.0
  Ni  Ni175  1  0.50000000  0.38750000  0.61250000  1.0
  Ni  Ni176  1  0.50000000  0.72083333  0.61250000  1.0
  Ni  Ni177  1  0.83333333  0.05416667  0.61250000  1.0
  Ni  Ni178  1  0.83333333  0.38750000  0.61250000  1.0
  Ni  Ni179  1  0.83333333  0.72083333  0.61250000  1.0
  Ni  Ni180  1  0.25000000  0.27916667  0.63750000  1.0
  Ni  Ni181  1  0.25000000  0.61250000  0.63750000  1.0
  Ni  Ni182  1  0.25000000  0.94583333  0.63750000  1.0
  Ni  Ni183  1  0.58333333  0.27916667  0.63750000  1.0
  Ni  Ni184  1  0.58333333  0.61250000  0.63750000  1.0
  Ni  Ni185  1  0.58333333  0.94583333  0.63750000  1.0
  Ni  Ni186  1  0.91666667  0.27916667  0.63750000  1.0
  Ni  Ni187  1  0.91666667  0.61250000  0.63750000  1.0
  Ni  Ni188  1  0.91666667  0.94583333  0.63750000  1.0
  Ni  Ni189  1  0.08333333  0.06250000  0.68750000  1.0
  Ni  Ni190  1  0.08333333  0.39583333  0.68750000  1.0
  Ni  Ni191  1  0.08333333  0.72916667  0.68750000  1.0
  Ni  Ni192  1  0.41666667  0.06250000  0.68750000  1.0
  Ni  Ni193  1  0.41666667  0.39583333  0.68750000  1.0
  Ni  Ni194  1  0.41666667  0.72916667  0.68750000  1.0
  Ni  Ni195  1  0.75000000  0.06250000  0.68750000  1.0
  Ni  Ni196  1  0.75000000  0.39583333  0.68750000  1.0
  Ni  Ni197  1  0.75000000  0.72916667  0.68750000  1.0
  Ni  Ni198  1  0.08333333  0.27916667  0.63750000  1.0
  Ni  Ni199  1  0.08333333  0.61250000  0.63750000  1.0
  Ni  Ni200  1  0.08333333  0.94583333  0.63750000  1.0
  Ni  Ni201  1  0.41666667  0.27916667  0.63750000  1.0
  Ni  Ni202  1  0.41666667  0.61250000  0.63750000  1.0
  Ni  Ni203  1  0.41666667  0.94583333  0.63750000  1.0
  Ni  Ni204  1  0.75000000  0.27916667  0.63750000  1.0
  Ni  Ni205  1  0.75000000  0.61250000  0.63750000  1.0
  Ni  Ni206  1  0.75000000  0.94583333  0.63750000  1.0
  Ni  Ni207  1  0.25000000  0.06250000  0.68750000  1.0
  Ni  Ni208  1  0.25000000  0.39583333  0.68750000  1.0
  Ni  Ni209  1  0.25000000  0.72916667  0.68750000  1.0
  Ni  Ni210  1  0.58333333  0.06250000  0.68750000  1.0
  Ni  Ni211  1  0.58333333  0.39583333  0.68750000  1.0
  Ni  Ni212  1  0.58333333  0.72916667  0.68750000  1.0
  Ni  Ni213  1  0.91666667  0.06250000  0.68750000  1.0
  Ni  Ni214  1  0.91666667  0.39583333  0.68750000  1.0
  Ni  Ni215  1  0.91666667  0.72916667  0.68750000  1.0
  Zn  Zn216  1  0.00000000  0.08750000  0.91250000  1.0
  Zn  Zn217  1  0.00000000  0.42083333  0.91250000  1.0
  Zn  Zn218  1  0.00000000  0.75416667  0.91250000  1.0
  Zn  Zn219  1  0.33333333  0.08750000  0.91250000  1.0
  Zn  Zn220  1  0.33333333  0.42083333  0.91250000  1.0
  Zn  Zn221  1  0.33333333  0.75416667  0.91250000  1.0
  Zn  Zn222  1  0.66666667  0.08750000  0.91250000  1.0
  Zn  Zn223  1  0.66666667  0.42083333  0.91250000  1.0
  Zn  Zn224  1  0.66666667  0.75416667  0.91250000  1.0
  Zn  Zn225  1  0.16666667  0.20416667  0.96250000  1.0
  Zn  Zn226  1  0.16666667  0.53750000  0.96250000  1.0
  Zn  Zn227  1  0.16666667  0.87083333  0.96250000  1.0
  Zn  Zn228  1  0.50000000  0.20416667  0.96250000  1.0
  Zn  Zn229  1  0.50000000  0.53750000  0.96250000  1.0
  Zn  Zn230  1  0.50000000  0.87083333  0.96250000  1.0
  Zn  Zn231  1  0.83333333  0.20416667  0.96250000  1.0
  Zn  Zn232  1  0.83333333  0.53750000  0.96250000  1.0
  Zn  Zn233  1  0.83333333  0.87083333  0.96250000  1.0
  Zn  Zn234  1  0.33333333  0.18750000  0.81250000  1.0
  Zn  Zn235  1  0.33333333  0.52083333  0.81250000  1.0
  Zn  Zn236  1  0.33333333  0.85416667  0.81250000  1.0
  Zn  Zn237  1  0.66666667  0.18750000  0.81250000  1.0
  Zn  Zn238  1  0.66666667  0.52083333  0.81250000  1.0
  Zn  Zn239  1  0.66666667  0.85416667  0.81250000  1.0
  Zn  Zn240  1  1.00000000  0.18750000  0.81250000  1.0
  Zn  Zn241  1  1.00000000  0.52083333  0.81250000  1.0
  Zn  Zn242  1  1.00000000  0.85416667  0.81250000  1.0
  Zn  Zn243  1  0.16666667  0.30416667  0.86250000  1.0
  Zn  Zn244  1  0.16666667  0.63750000  0.86250000  1.0
  Zn  Zn245  1  0.16666667  0.97083333  0.86250000  1.0
  Zn  Zn246  1  0.50000000  0.30416667  0.86250000  1.0
  Zn  Zn247  1  0.50000000  0.63750000  0.86250000  1.0
  Zn  Zn248  1  0.50000000  0.97083333  0.86250000  1.0
  Zn  Zn249  1  0.83333333  0.30416667  0.86250000  1.0
  Zn  Zn250  1  0.83333333  0.63750000  0.86250000  1.0
  Zn  Zn251  1  0.83333333  0.97083333  0.86250000  1.0
  Zn  Zn252  1  0.33333333  0.28750000  0.71250000  1.0
  Zn  Zn253  1  0.33333333  0.62083333  0.71250000  1.0
  Zn  Zn254  1  0.33333333  0.95416667  0.71250000  1.0
  Zn  Zn255  1  0.66666667  0.28750000  0.71250000  1.0
  Zn  Zn256  1  0.66666667  0.62083333  0.71250000  1.0
  Zn  Zn257  1  0.66666667  0.95416667  0.71250000  1.0
  Zn  Zn258  1  1.00000000  0.28750000  0.71250000  1.0
  Zn  Zn259  1  1.00000000  0.62083333  0.71250000  1.0
  Zn  Zn260  1  1.00000000  0.95416667  0.71250000  1.0
  Zn  Zn261  1  0.16666667  0.07083333  0.76250000  1.0
  Zn  Zn262  1  0.16666667  0.40416667  0.76250000  1.0
  Zn  Zn263  1  0.16666667  0.73750000  0.76250000  1.0
  Zn  Zn264  1  0.50000000  0.07083333  0.76250000  1.0
  Zn  Zn265  1  0.50000000  0.40416667  0.76250000  1.0
  Zn  Zn266  1  0.50000000  0.73750000  0.76250000  1.0
  Zn  Zn267  1  0.83333333  0.07083333  0.76250000  1.0
  Zn  Zn268  1  0.83333333  0.40416667  0.76250000  1.0
  Zn  Zn269  1  0.83333333  0.73750000  0.76250000  1.0
  Zn  Zn270  1  0.00000000  0.05416667  0.61250000  1.0
  Zn  Zn271  1  0.00000000  0.38750000  0.61250000  1.0
  Zn  Zn272  1  0.00000000  0.72083333  0.61250000  1.0
  Zn  Zn273  1  0.33333333  0.05416667  0.61250000  1.0
  Zn  Zn274  1  0.33333333  0.38750000  0.61250000  1.0
  Zn  Zn275  1  0.33333333  0.72083333  0.61250000  1.0
  Zn  Zn276  1  0.66666667  0.05416667  0.61250000  1.0
  Zn  Zn277  1  0.66666667  0.38750000  0.61250000  1.0
  Zn  Zn278  1  0.66666667  0.72083333  0.61250000  1.0
  Zn  Zn279  1  0.16666667  0.17083333  0.66250000  1.0
  Zn  Zn280  1  0.16666667  0.50416667  0.66250000  1.0
  Zn  Zn281  1  0.16666667  0.83750000  0.66250000  1.0
  Zn  Zn282  1  0.50000000  0.17083333  0.66250000  1.0
  Zn  Zn283  1  0.50000000  0.50416667  0.66250000  1.0
  Zn  Zn284  1  0.50000000  0.83750000  0.66250000  1.0
  Zn  Zn285  1  0.83333333  0.17083333  0.66250000  1.0
  Zn  Zn286  1  0.83333333  0.50416667  0.66250000  1.0
  Zn  Zn287  1  0.83333333  0.83750000  0.66250000  1.0
