# generated using pymatgen
data_ZnNi
_symmetry_space_group_name_H-M   'P 1'
_cell_length_a   16.03839002
_cell_length_b   19.64293592
_cell_length_c   28.78979116
_cell_angle_alpha   94.34775315
_cell_angle_beta   90.00000000
_cell_angle_gamma   114.09484255
_symmetry_Int_Tables_number   1
_chemical_formula_structural   ZnNi
_chemical_formula_sum   'Zn90 Ni90'
_cell_volume   8251.10866270
_cell_formula_units_Z   90
loop_
 _symmetry_equiv_pos_site_id
 _symmetry_equiv_pos_as_xyz
  1  'x, y, z'
loop_
 _atom_site_type_symbol
 _atom_site_label
 _atom_site_symmetry_multiplicity
 _atom_site_fract_x
 _atom_site_fract_y
 _atom_site_fract_z
 _atom_site_occupancy
  Ni  Ni0  1  0.26041667  0.14583333  0.03125000  1.0
  Ni  Ni1  1  0.26041667  0.47916667  0.03125000  1.0
  Ni  Ni2  1  0.26041667  0.81250000  0.03125000  1.0
  Ni  Ni3  1  0.59375000  0.14583333  0.03125000  1.0
  Ni  Ni4  1  0.59375000  0.47916667  0.03125000  1.0
  Ni  Ni5  1  0.59375000  0.81250000  0.03125000  1.0
  Ni  Ni6  1  0.92708333  0.14583333  0.03125000  1.0
  Ni  Ni7  1  0.92708333  0.47916667  0.03125000  1.0
  Ni  Ni8  1  0.92708333  0.81250000  0.03125000  1.0
  Ni  Ni9  1  0.16319444  0.28472222  0.07291667  1.0
  Ni  Ni10  1  0.16319444  0.61805556  0.07291667  1.0
  Ni  Ni11  1  0.16319444  0.95138889  0.07291667  1.0
  Ni  Ni12  1  0.49652778  0.28472222  0.07291667  1.0
  Ni  Ni13  1  0.49652778  0.61805556  0.07291667  1.0
  Ni  Ni14  1  0.49652778  0.95138889  0.07291667  1.0
  Ni  Ni15  1  0.82986111  0.28472222  0.07291667  1.0
  Ni  Ni16  1  0.82986111  0.61805556  0.07291667  1.0
  Ni  Ni17  1  0.82986111  0.95138889  0.07291667  1.0
  Ni  Ni18  1  0.06597222  0.09027778  0.11458333  1.0
  Ni  Ni19  1  0.06597222  0.42361111  0.11458333  1.0
  Ni  Ni20  1  0.06597222  0.75694444  0.11458333  1.0
  Ni  Ni21  1  0.39930556  0.09027778  0.11458333  1.0
  Ni  Ni22  1  0.39930556  0.42361111  0.11458333  1.0
  Ni  Ni23  1  0.39930556  0.75694444  0.11458333  1.0
  Ni  Ni24  1  0.73263889  0.09027778  0.11458333  1.0
  Ni  Ni25  1  0.73263889  0.42361111  0.11458333  1.0
  Ni  Ni26  1  0.73263889  0.75694444  0.11458333  1.0
  Ni  Ni27  1  0.30208333  0.22916667  0.15625000  1.0
  Ni  Ni28  1  0.30208333  0.56250000  0.15625000  1.0
  Ni  Ni29  1  0.30208333  0.89583333  0.15625000  1.0
  Ni  Ni30  1  0.63541667  0.22916667  0.15625000  1.0
  Ni  Ni31  1  0.63541667  0.56250000  0.15625000  1.0
  Ni  Ni32  1  0.63541667  0.89583333  0.15625000  1.0
  Ni  Ni33  1  0.96875000  0.22916667  0.15625000  1.0
  Ni  Ni34  1  0.96875000  0.56250000  0.15625000  1.0
  Ni  Ni35  1  0.96875000  0.89583333  0.15625000  1.0
  Ni  Ni36  1  0.20486111  0.03472222  0.19791667  1.0
  Ni  Ni37  1  0.20486111  0.36805556  0.19791667  1.0
  Ni  Ni38  1  0.20486111  0.70138889  0.19791667  1.0
  Ni  Ni39  1  0.53819444  0.03472222  0.19791667  1.0
  Ni  Ni40  1  0.53819444  0.36805556  0.19791667  1.0
  Ni  Ni41  1  0.53819444  0.70138889  0.19791667  1.0
  Ni  Ni42  1  0.87152778  0.03472222  0.19791667  1.0
  Ni  Ni43  1  0.87152778  0.36805556  0.19791667  1.0
  Ni  Ni44  1  0.87152778  0.70138889  0.19791667  1.0
  Ni  Ni45  1  0.10763889  0.17361111  0.23958333  1.0
  Ni  Ni46  1  0.10763889  0.50694444  0.23958333  1.0
  Ni  Ni47  1  0.10763889  0.84027778  0.23958333  1.0
  Ni  Ni48  1  0.44097222  0.17361111  0.23958333  1.0
  Ni  Ni49  1  0.44097222  0.50694444  0.23958333  1.0
  Ni  Ni50  1  0.44097222  0.84027778  0.23958333  1.0
  Ni  Ni51  1  0.77430556  0.17361111  0.23958333  1.0
  Ni  Ni52  1  0.77430556  0.50694444  0.23958333  1.0
  Ni  Ni53  1  0.77430556  0.84027778  0.23958333  1.0
  Ni  Ni54  1  0.01041667  0.31250000  0.28125000  1.0
  Ni  Ni55  1  0.01041667  0.64583333  0.28125000  1.0
  Ni  Ni56  1  0.01041667  0.97916667  0.28125000  1.0
  Ni  Ni57  1  0.34375000  0.31250000  0.28125000  1.0
  Ni  Ni58  1  0.34375000  0.64583333  0.28125000  1.0
  Ni  Ni59  1  0.34375000  0.97916667  0.28125000  1.0
  Ni  Ni60  1  0.67708333  0.31250000  0.28125000  1.0
  Ni  Ni61  1  0.67708333  0.64583333  0.28125000  1.0
  Ni  Ni62  1  0.67708333  0.97916667  0.28125000  1.0
  Ni  Ni63  1  0.24652778  0.11805556  0.32291667  1.0
  Ni  Ni64  1  0.24652778  0.45138889  0.32291667  1.0
  Ni  Ni65  1  0.24652778  0.78472222  0.32291667  1.0
  Ni  Ni66  1  0.57986111  0.11805556  0.32291667  1.0
  Ni  Ni67  1  0.57986111  0.45138889  0.32291667  1.0
  Ni  Ni68  1  0.57986111  0.78472222  0.32291667  1.0
  Ni  Ni69  1  0.91319444  0.11805556  0.32291667  1.0
  Ni  Ni70  1  0.91319444  0.45138889  0.32291667  1.0
  Ni  Ni71  1  0.91319444  0.78472222  0.32291667  1.0
  Ni  Ni72  1  0.14930556  0.25694444  0.36458333  1.0
  Ni  Ni73  1  0.14930556  0.59027778  0.36458333  1.0
  Ni  Ni74  1  0.14930556  0.92361111  0.36458333  1.0
  Ni  Ni75  1  0.48263889  0.25694444  0.36458333  1.0
  Ni  Ni76  1  0.48263889  0.59027778  0.36458333  1.0
  Ni  Ni77  1  0.48263889  0.92361111  0.36458333  1.0
  Ni  Ni78  1  0.81597222  0.25694444  0.36458333  1.0
  Ni  Ni79  1  0.81597222  0.59027778  0.36458333  1.0
  Ni  Ni80  1  0.81597222  0.92361111  0.36458333  1.0
  Ni  Ni81  1  0.05208333  0.06250000  0.40625000  1.0
  Ni  Ni82  1  0.05208333  0.39583333  0.40625000  1.0
  Ni  Ni83  1  0.05208333  0.72916667  0.40625000  1.0
  Ni  Ni84  1  0.38541667  0.06250000  0.40625000  1.0
  Ni  Ni85  1  0.38541667  0.39583333  0.40625000  1.0
  Ni  Ni86  1  0.38541667  0.72916667  0.40625000  1.0
  Ni  Ni87  1  0.71875000  0.06250000  0.40625000  1.0
  Ni  Ni88  1  0.71875000  0.39583333  0.40625000  1.0
  Ni  Ni89  1  0.71875000  0.72916667  0.40625000  1.0
  Zn  Zn90  1  0.05902778  0.24305556  0.01041667  1.0
  Zn  Zn91  1  0.05902778  0.57638889  0.01041667  1.0
  Zn  Zn92  1  0.05902778  0.90972222  0.01041667  1.0
  Zn  Zn93  1  0.39236111  0.24305556  0.01041667  1.0
  Zn  Zn94  1  0.39236111  0.57638889  0.01041667  1.0
  Zn  Zn95  1  0.39236111  0.90972222  0.01041667  1.0
  Zn  Zn96  1  0.72569444  0.24305556  0.01041667  1.0
  Zn  Zn97  1  0.72569444  0.57638889  0.01041667  1.0
  Zn  Zn98  1  0.72569444  0.90972222  0.01041667  1.0
  Zn  Zn99  1  0.29513889  0.04861111  0.05208333  1.0
  Zn  Zn100  1  0.29513889  0.38194444  0.05208333  1.0
  Zn  Zn101  1  0.29513889  0.71527778  0.05208333  1.0
  Zn  Zn102  1  0.62847222  0.04861111  0.05208333  1.0
  Zn  Zn103  1  0.62847222  0.38194444  0.05208333  1.0
  Zn  Zn104  1  0.62847222  0.71527778  0.05208333  1.0
  Zn  Zn105  1  0.96180556  0.04861111  0.05208333  1.0
  Zn  Zn106  1  0.96180556  0.38194444  0.05208333  1.0
  Zn  Zn107  1  0.96180556  0.71527778  0.05208333  1.0
  Zn  Zn108  1  0.19791667  0.18750000  0.09375000  1.0
  Zn  Zn109  1  0.19791667  0.52083333  0.09375000  1.0
  Zn  Zn110  1  0.19791667  0.85416667  0.09375000  1.0
  Zn  Zn111  1  0.53125000  0.18750000  0.09375000  1.0
  Zn  Zn112  1  0.53125000  0.52083333  0.09375000  1.0
  Zn  Zn113  1  0.53125000  0.85416667  0.09375000  1.0
  Zn  Zn114  1  0.86458333  0.18750000  0.09375000  1.0
  Zn  Zn115  1  0.86458333  0.52083333  0.09375000  1.0
  Zn  Zn116  1  0.86458333  0.85416667  0.09375000  1.0
  Zn  Zn117  1  0.10069444  0.32638889  0.13541667  1.0
  Zn  Zn118  1  0.10069444  0.65972222  0.13541667  1.0
  Zn  Zn119  1  0.10069444  0.99305556  0.13541667  1.0
  Zn  Zn120  1  0.43402778  0.32638889  0.13541667  1.0
  Zn  Zn121  1  0.43402778  0.65972222  0.13541667  1.0
  Zn  Zn122  1  0.43402778  0.99305556  0.13541667  1.0
  Zn  Zn123  1  0.76736111  0.32638889  0.13541667  1.0
  Zn  Zn124  1  0.76736111  0.65972222  0.13541667  1.0
  Zn  Zn125  1  0.76736111  0.99305556  0.13541667  1.0
  Zn  Zn126  1  0.00347222  0.13194444  0.17708333  1.0
  Zn  Zn127  1  0.00347222  0.46527778  0.17708333  1.0
  Zn  Zn128  1  0.00347222  0.79861111  0.17708333  1.0
  Zn  Zn129  1  0.33680556  0.13194444  0.17708333  1.0
  Zn  Zn130  1  0.33680556  0.46527778  0.17708333  1.0
  Zn  Zn131  1  0.33680556  0.79861111  0.17708333  1.0
  Zn  Zn132  1  0.67013889  0.13194444  0.17708333  1.0
  Zn  Zn133  1  0.67013889  0.46527778  0.17708333  1.0
  Zn  Zn134  1  0.67013889  0.79861111  0.17708333  1.0
  Zn  Zn135  1  0.23958333  0.27083333  0.21875000  1.0
  Zn  Zn136  1  0.23958333  0.60416667  0.21875000  1.0
  Zn  Zn137  1  0.23958333  0.93750000  0.21875000  1.0
  Zn  Zn138  1  0.57291667  0.27083333  0.21875000  1.0
  Zn  Zn139  1  0.57291667  0.60416667  0.21875000  1.0
  Zn  Zn140  1  0.57291667  0.93750000  0.21875000  1.0
  Zn  Zn141  1  0.90625000  0.27083333  0.21875000  1.0
  Zn  Zn142  1  0.90625000  0.60416667  0.21875000  1.0
  Zn  Zn143  1  0.90625000  0.93750000  0.21875000  1.0
  Zn  Zn144  1  0.14236111  0.07638889  0.26041667  1.0
  Zn  Zn145  1  0.14236111  0.40972222  0.26041667  1.0
  Zn  Zn146  1  0.14236111  0.74305556  0.26041667  1.0
  Zn  Zn147  1  0.47569444  0.07638889  0.26041667  1.0
  Zn  Zn148  1  0.47569444  0.40972222  0.26041667  1.0
  Zn  Zn149  1  0.47569444  0.74305556  0.26041667  1.0
  Zn  Zn150  1  0.80902778  0.07638889  0.26041667  1.0
  Zn  Zn151  1  0.80902778  0.40972222  0.26041667  1.0
  Zn  Zn152  1  0.80902778  0.74305556  0.26041667  1.0
  Zn  Zn153  1  0.04513889  0.21527778  0.30208333  1.0
  Zn  Zn154  1  0.04513889  0.54861111  0.30208333  1.0
  Zn  Zn155  1  0.04513889  0.88194444  0.30208333  1.0
  Zn  Zn156  1  0.37847222  0.21527778  0.30208333  1.0
  Zn  Zn157  1  0.37847222  0.54861111  0.30208333  1.0
  Zn  Zn158  1  0.37847222  0.88194444  0.30208333  1.0
  Zn  Zn159  1  0.71180556  0.21527778  0.30208333  1.0
  Zn  Zn160  1  0.71180556  0.54861111  0.30208333  1.0
  Zn  Zn161  1  0.71180556  0.88194444  0.30208333  1.0
  Zn  Zn162  1  0.28125000  0.02083333  0.34375000  1.0
  Zn  Zn163  1  0.28125000  0.35416667  0.34375000  1.0
  Zn  Zn164  1  0.28125000  0.68750000  0.34375000  1.0
  Zn  Zn165  1  0.61458333  0.02083333  0.34375000  1.0
  Zn  Zn166  1  0.61458333  0.35416667  0.34375000  1.0
  Zn  Zn167  1  0.61458333  0.68750000  0.34375000  1.0
  Zn  Zn168  1  0.94791667  0.02083333  0.34375000  1.0
  Zn  Zn169  1  0.94791667  0.35416667  0.34375000  1.0
  Zn  Zn170  1  0.94791667  0.68750000  0.34375000  1.0
  Zn  Zn171  1  0.18402778  0.15972222  0.38541667  1.0
  Zn  Zn172  1  0.18402778  0.49305556  0.38541667  1.0
  Zn  Zn173  1  0.18402778  0.82638889  0.38541667  1.0
  Zn  Zn174  1  0.51736111  0.15972222  0.38541667  1.0
  Zn  Zn175  1  0.51736111  0.49305556  0.38541667  1.0
  Zn  Zn176  1  0.51736111  0.82638889  0.38541667  1.0
  Zn  Zn177  1  0.85069444  0.15972222  0.38541667  1.0
  Zn  Zn178  1  0.85069444  0.49305556  0.38541667  1.0
  Zn  Zn179  1  0.85069444  0.82638889  0.38541667  1.0
