# generated using pymatgen
data_ZnNi3
_symmetry_space_group_name_H-M   'P 1'
_cell_length_a   10.82798399
_cell_length_b   20.09417834
_cell_length_c   27.66475505
_cell_angle_alpha   83.51296657
_cell_angle_beta   86.25974980
_cell_angle_gamma   74.36959675
_symmetry_Int_Tables_number   1
_chemical_formula_structural   ZnNi3
_chemical_formula_sum   'Zn54 Ni162'
_cell_volume   5755.76473440
_cell_formula_units_Z   54
loop_
 _symmetry_equiv_pos_site_id
 _symmetry_equiv_pos_as_xyz
  1  'x, y, z'
loop_
 _atom_site_type_symbol
 _atom_site_label
 _atom_site_symmetry_multiplicity
 _atom_site_fract_x
 _atom_site_fract_y
 _atom_site_fract_z
 _atom_site_occupancy
  Ni  Ni0  1  0.22023810  0.20833333  0.11607143  1.0
  Ni  Ni1  1  0.22023810  0.54166667  0.11607143  1.0
  Ni  Ni2  1  0.22023810  0.87500000  0.11607143  1.0
  Ni  Ni3  1  0.55357143  0.20833333  0.11607143  1.0
  Ni  Ni4  1  0.55357143  0.54166667  0.11607143  1.0
  Ni  Ni5  1  0.55357143  0.87500000  0.11607143  1.0
  Ni  Ni6  1  0.88690476  0.20833333  0.11607143  1.0
  Ni  Ni7  1  0.88690476  0.54166667  0.11607143  1.0
  Ni  Ni8  1  0.88690476  0.87500000  0.11607143  1.0
  Ni  Ni9  1  0.14880952  0.04166667  0.04464286  1.0
  Ni  Ni10  1  0.14880952  0.37500000  0.04464286  1.0
  Ni  Ni11  1  0.14880952  0.70833333  0.04464286  1.0
  Ni  Ni12  1  0.48214286  0.04166667  0.04464286  1.0
  Ni  Ni13  1  0.48214286  0.37500000  0.04464286  1.0
  Ni  Ni14  1  0.48214286  0.70833333  0.04464286  1.0
  Ni  Ni15  1  0.81547619  0.04166667  0.04464286  1.0
  Ni  Ni16  1  0.81547619  0.37500000  0.04464286  1.0
  Ni  Ni17  1  0.81547619  0.70833333  0.04464286  1.0
  Ni  Ni18  1  0.27976190  0.12500000  0.00892857  1.0
  Ni  Ni19  1  0.27976190  0.45833333  0.00892857  1.0
  Ni  Ni20  1  0.27976190  0.79166667  0.00892857  1.0
  Ni  Ni21  1  0.61309524  0.12500000  0.00892857  1.0
  Ni  Ni22  1  0.61309524  0.45833333  0.00892857  1.0
  Ni  Ni23  1  0.61309524  0.79166667  0.00892857  1.0
  Ni  Ni24  1  0.94642857  0.12500000  0.00892857  1.0
  Ni  Ni25  1  0.94642857  0.45833333  0.00892857  1.0
  Ni  Ni26  1  0.94642857  0.79166667  0.00892857  1.0
  Ni  Ni27  1  0.01785714  0.29166667  0.08035714  1.0
  Ni  Ni28  1  0.01785714  0.62500000  0.08035714  1.0
  Ni  Ni29  1  0.01785714  0.95833333  0.08035714  1.0
  Ni  Ni30  1  0.35119048  0.29166667  0.08035714  1.0
  Ni  Ni31  1  0.35119048  0.62500000  0.08035714  1.0
  Ni  Ni32  1  0.35119048  0.95833333  0.08035714  1.0
  Ni  Ni33  1  0.68452381  0.29166667  0.08035714  1.0
  Ni  Ni34  1  0.68452381  0.62500000  0.08035714  1.0
  Ni  Ni35  1  0.68452381  0.95833333  0.08035714  1.0
  Ni  Ni36  1  0.28571429  0.08333333  0.09821429  1.0
  Ni  Ni37  1  0.28571429  0.41666667  0.09821429  1.0
  Ni  Ni38  1  0.28571429  0.75000000  0.09821429  1.0
  Ni  Ni39  1  0.61904762  0.08333333  0.09821429  1.0
  Ni  Ni40  1  0.61904762  0.41666667  0.09821429  1.0
  Ni  Ni41  1  0.61904762  0.75000000  0.09821429  1.0
  Ni  Ni42  1  0.95238095  0.08333333  0.09821429  1.0
  Ni  Ni43  1  0.95238095  0.41666667  0.09821429  1.0
  Ni  Ni44  1  0.95238095  0.75000000  0.09821429  1.0
  Ni  Ni45  1  0.21428571  0.25000000  0.02678571  1.0
  Ni  Ni46  1  0.21428571  0.58333333  0.02678571  1.0
  Ni  Ni47  1  0.21428571  0.91666667  0.02678571  1.0
  Ni  Ni48  1  0.54761905  0.25000000  0.02678571  1.0
  Ni  Ni49  1  0.54761905  0.58333333  0.02678571  1.0
  Ni  Ni50  1  0.54761905  0.91666667  0.02678571  1.0
  Ni  Ni51  1  0.88095238  0.25000000  0.02678571  1.0
  Ni  Ni52  1  0.88095238  0.58333333  0.02678571  1.0
  Ni  Ni53  1  0.88095238  0.91666667  0.02678571  1.0
  Ni  Ni54  1  0.02976190  0.20833333  0.25892857  1.0
  Ni  Ni55  1  0.02976190  0.54166667  0.25892857  1.0
  Ni  Ni56  1  0.02976190  0.87500000  0.25892857  1.0
  Ni  Ni57  1  0.36309524  0.20833333  0.25892857  1.0
  Ni  Ni58  1  0.36309524  0.54166667  0.25892857  1.0
  Ni  Ni59  1  0.36309524  0.87500000  0.25892857  1.0
  Ni  Ni60  1  0.69642857  0.20833333  0.25892857  1.0
  Ni  Ni61  1  0.69642857  0.54166667  0.25892857  1.0
  Ni  Ni62  1  0.69642857  0.87500000  0.25892857  1.0
  Ni  Ni63  1  0.29166667  0.04166667  0.18750000  1.0
  Ni  Ni64  1  0.29166667  0.37500000  0.18750000  1.0
  Ni  Ni65  1  0.29166667  0.70833333  0.18750000  1.0
  Ni  Ni66  1  0.62500000  0.04166667  0.18750000  1.0
  Ni  Ni67  1  0.62500000  0.37500000  0.18750000  1.0
  Ni  Ni68  1  0.62500000  0.70833333  0.18750000  1.0
  Ni  Ni69  1  0.95833333  0.04166667  0.18750000  1.0
  Ni  Ni70  1  0.95833333  0.37500000  0.18750000  1.0
  Ni  Ni71  1  0.95833333  0.70833333  0.18750000  1.0
  Ni  Ni72  1  0.08928571  0.12500000  0.15178571  1.0
  Ni  Ni73  1  0.08928571  0.45833333  0.15178571  1.0
  Ni  Ni74  1  0.08928571  0.79166667  0.15178571  1.0
  Ni  Ni75  1  0.42261905  0.12500000  0.15178571  1.0
  Ni  Ni76  1  0.42261905  0.45833333  0.15178571  1.0
  Ni  Ni77  1  0.42261905  0.79166667  0.15178571  1.0
  Ni  Ni78  1  0.75595238  0.12500000  0.15178571  1.0
  Ni  Ni79  1  0.75595238  0.45833333  0.15178571  1.0
  Ni  Ni80  1  0.75595238  0.79166667  0.15178571  1.0
  Ni  Ni81  1  0.16071429  0.29166667  0.22321429  1.0
  Ni  Ni82  1  0.16071429  0.62500000  0.22321429  1.0
  Ni  Ni83  1  0.16071429  0.95833333  0.22321429  1.0
  Ni  Ni84  1  0.49404762  0.29166667  0.22321429  1.0
  Ni  Ni85  1  0.49404762  0.62500000  0.22321429  1.0
  Ni  Ni86  1  0.49404762  0.95833333  0.22321429  1.0
  Ni  Ni87  1  0.82738095  0.29166667  0.22321429  1.0
  Ni  Ni88  1  0.82738095  0.62500000  0.22321429  1.0
  Ni  Ni89  1  0.82738095  0.95833333  0.22321429  1.0
  Ni  Ni90  1  0.09523810  0.08333333  0.24107143  1.0
  Ni  Ni91  1  0.09523810  0.41666667  0.24107143  1.0
  Ni  Ni92  1  0.09523810  0.75000000  0.24107143  1.0
  Ni  Ni93  1  0.42857143  0.08333333  0.24107143  1.0
  Ni  Ni94  1  0.42857143  0.41666667  0.24107143  1.0
  Ni  Ni95  1  0.42857143  0.75000000  0.24107143  1.0
  Ni  Ni96  1  0.76190476  0.08333333  0.24107143  1.0
  Ni  Ni97  1  0.76190476  0.41666667  0.24107143  1.0
  Ni  Ni98  1  0.76190476  0.75000000  0.24107143  1.0
  Ni  Ni99  1  0.02380952  0.25000000  0.16964286  1.0
  Ni  Ni100  1  0.02380952  0.58333333  0.16964286  1.0
  Ni  Ni101  1  0.02380952  0.91666667  0.16964286  1.0
  Ni  Ni102  1  0.35714286  0.25000000  0.16964286  1.0
  Ni  Ni103  1  0.35714286  0.58333333  0.16964286  1.0
  Ni  Ni104  1  0.35714286  0.91666667  0.16964286  1.0
  Ni  Ni105  1  0.69047619  0.25000000  0.16964286  1.0
  Ni  Ni106  1  0.69047619  0.58333333  0.16964286  1.0
  Ni  Ni107  1  0.69047619  0.91666667  0.16964286  1.0
  Ni  Ni108  1  0.17261905  0.20833333  0.40178571  1.0
  Ni  Ni109  1  0.17261905  0.54166667  0.40178571  1.0
  Ni  Ni110  1  0.17261905  0.87500000  0.40178571  1.0
  Ni  Ni111  1  0.50595238  0.20833333  0.40178571  1.0
  Ni  Ni112  1  0.50595238  0.54166667  0.40178571  1.0
  Ni  Ni113  1  0.50595238  0.87500000  0.40178571  1.0
  Ni  Ni114  1  0.83928571  0.20833333  0.40178571  1.0
  Ni  Ni115  1  0.83928571  0.54166667  0.40178571  1.0
  Ni  Ni116  1  0.83928571  0.87500000  0.40178571  1.0
  Ni  Ni117  1  0.10119048  0.04166667  0.33035714  1.0
  Ni  Ni118  1  0.10119048  0.37500000  0.33035714  1.0
  Ni  Ni119  1  0.10119048  0.70833333  0.33035714  1.0
  Ni  Ni120  1  0.43452381  0.04166667  0.33035714  1.0
  Ni  Ni121  1  0.43452381  0.37500000  0.33035714  1.0
  Ni  Ni122  1  0.43452381  0.70833333  0.33035714  1.0
  Ni  Ni123  1  0.76785714  0.04166667  0.33035714  1.0
  Ni  Ni124  1  0.76785714  0.37500000  0.33035714  1.0
  Ni  Ni125  1  0.76785714  0.70833333  0.33035714  1.0
  Ni  Ni126  1  0.23214286  0.12500000  0.29464286  1.0
  Ni  Ni127  1  0.23214286  0.45833333  0.29464286  1.0
  Ni  Ni128  1  0.23214286  0.79166667  0.29464286  1.0
  Ni  Ni129  1  0.56547619  0.12500000  0.29464286  1.0
  Ni  Ni130  1  0.56547619  0.45833333  0.29464286  1.0
  Ni  Ni131  1  0.56547619  0.79166667  0.29464286  1.0
  Ni  Ni132  1  0.89880952  0.12500000  0.29464286  1.0
  Ni  Ni133  1  0.89880952  0.45833333  0.29464286  1.0
  Ni  Ni134  1  0.89880952  0.79166667  0.29464286  1.0
  Ni  Ni135  1  0.30357143  0.29166667  0.36607143  1.0
  Ni  Ni136  1  0.30357143  0.62500000  0.36607143  1.0
  Ni  Ni137  1  0.30357143  0.95833333  0.36607143  1.0
  Ni  Ni138  1  0.63690476  0.29166667  0.36607143  1.0
  Ni  Ni139  1  0.63690476  0.62500000  0.36607143  1.0
  Ni  Ni140  1  0.63690476  0.95833333  0.36607143  1.0
  Ni  Ni141  1  0.97023810  0.29166667  0.36607143  1.0
  Ni  Ni142  1  0.97023810  0.62500000  0.36607143  1.0
  Ni  Ni143  1  0.97023810  0.95833333  0.36607143  1.0
  Ni  Ni144  1  0.23809524  0.08333333  0.38392857  1.0
  Ni  Ni145  1  0.23809524  0.41666667  0.38392857  1.0
  Ni  Ni146  1  0.23809524  0.75000000  0.38392857  1.0
  Ni  Ni147  1  0.57142857  0.08333333  0.38392857  1.0
  Ni  Ni148  1  0.57142857  0.41666667  0.38392857  1.0
  Ni  Ni149  1  0.57142857  0.75000000  0.38392857  1.0
  Ni  Ni150  1  0.90476190  0.08333333  0.38392857  1.0
  Ni  Ni151  1  0.90476190  0.41666667  0.38392857  1.0
  Ni  Ni152  1  0.90476190  0.75000000  0.38392857  1.0
  Ni  Ni153  1  0.16666667  0.25000000  0.31250000  1.0
  Ni  Ni154  1  0.16666667  0.58333333  0.31250000  1.0
  Ni  Ni155  1  0.16666667  0.91666667  0.31250000  1.0
  Ni  Ni156  1  0.50000000  0.25000000  0.31250000  1.0
  Ni  Ni157  1  0.50000000  0.58333333  0.31250000  1.0
  Ni  Ni158  1  0.50000000  0.91666667  0.31250000  1.0
  Ni  Ni159  1  0.83333333  0.25000000  0.31250000  1.0
  Ni  Ni160  1  0.83333333  0.58333333  0.31250000  1.0
  Ni  Ni161  1  0.83333333  0.91666667  0.31250000  1.0
  Zn  Zn162  1  0.08333333  0.16666667  0.06250000  1.0
  Zn  Zn163  1  0.08333333  0.50000000  0.06250000  1.0
  Zn  Zn164  1  0.08333333  0.83333333  0.06250000  1.0
  Zn  Zn165  1  0.41666667  0.16666667  0.06250000  1.0
  Zn  Zn166  1  0.41666667  0.50000000  0.06250000  1.0
  Zn  Zn167  1  0.41666667  0.83333333  0.06250000  1.0
  Zn  Zn168  1  0.75000000  0.16666667  0.06250000  1.0
  Zn  Zn169  1  0.75000000  0.50000000  0.06250000  1.0
  Zn  Zn170  1  0.75000000  0.83333333  0.06250000  1.0
  Zn  Zn171  1  0.15476190  0.00000000  0.13392857  1.0
  Zn  Zn172  1  0.15476190  0.33333333  0.13392857  1.0
  Zn  Zn173  1  0.15476190  0.66666667  0.13392857  1.0
  Zn  Zn174  1  0.48809524  0.00000000  0.13392857  1.0
  Zn  Zn175  1  0.48809524  0.33333333  0.13392857  1.0
  Zn  Zn176  1  0.48809524  0.66666667  0.13392857  1.0
  Zn  Zn177  1  0.82142857  0.00000000  0.13392857  1.0
  Zn  Zn178  1  0.82142857  0.33333333  0.13392857  1.0
  Zn  Zn179  1  0.82142857  0.66666667  0.13392857  1.0
  Zn  Zn180  1  0.22619048  0.16666667  0.20535714  1.0
  Zn  Zn181  1  0.22619048  0.50000000  0.20535714  1.0
  Zn  Zn182  1  0.22619048  0.83333333  0.20535714  1.0
  Zn  Zn183  1  0.55952381  0.16666667  0.20535714  1.0
  Zn  Zn184  1  0.55952381  0.50000000  0.20535714  1.0
  Zn  Zn185  1  0.55952381  0.83333333  0.20535714  1.0
  Zn  Zn186  1  0.89285714  0.16666667  0.20535714  1.0
  Zn  Zn187  1  0.89285714  0.50000000  0.20535714  1.0
  Zn  Zn188  1  0.89285714  0.83333333  0.20535714  1.0
  Zn  Zn189  1  0.29761905  0.00000000  0.27678571  1.0
  Zn  Zn190  1  0.29761905  0.33333333  0.27678571  1.0
  Zn  Zn191  1  0.29761905  0.66666667  0.27678571  1.0
  Zn  Zn192  1  0.63095238  0.00000000  0.27678571  1.0
  Zn  Zn193  1  0.63095238  0.33333333  0.27678571  1.0
  Zn  Zn194  1  0.63095238  0.66666667  0.27678571  1.0
  Zn  Zn195  1  0.96428571  0.00000000  0.27678571  1.0
  Zn  Zn196  1  0.96428571  0.33333333  0.27678571  1.0
  Zn  Zn197  1  0.96428571  0.66666667  0.27678571  1.0
  Zn  Zn198  1  0.03571429  0.16666667  0.34821429  1.0
  Zn  Zn199  1  0.03571429  0.50000000  0.34821429  1.0
  Zn  Zn200  1  0.03571429  0.83333333  0.34821429  1.0
  Zn  Zn201  1  0.36904762  0.16666667  0.34821429  1.0
  Zn  Zn202  1  0.36904762  0.50000000  0.34821429  1.0
  Zn  Zn203  1  0.36904762  0.83333333  0.34821429  1.0
  Zn  Zn204  1  0.70238095  0.16666667  0.34821429  1.0
  Zn  Zn205  1  0.70238095  0.50000000  0.34821429  1.0
  Zn  Zn206  1  0.70238095  0.83333333  0.34821429  1.0
  Zn  Zn207  1  0.10714286  0.00000000  0.41964286  1.0
  Zn  Zn208  1  0.10714286  0.33333333  0.41964286  1.0
  Zn  Zn209  1  0.10714286  0.66666667  0.41964286  1.0
  Zn  Zn210  1  0.44047619  0.00000000  0.41964286  1.0
  Zn  Zn211  1  0.44047619  0.33333333  0.41964286  1.0
  Zn  Zn212  1  0.44047619  0.66666667  0.41964286  1.0
  Zn  Zn213  1  0.77380952  0.00000000  0.41964286  1.0
  Zn  Zn214  1  0.77380952  0.33333333  0.41964286  1.0
  Zn  Zn215  1  0.77380952  0.66666667  0.41964286  1.0
