# generated using pymatgen
data_ZnNi
_symmetry_space_group_name_H-M   'P 1'
_cell_length_a   11.34085434
_cell_length_b   27.77930638
_cell_length_c   26.19058122
_cell_angle_alpha   90.00000000
_cell_angle_beta   90.00000000
_cell_angle_gamma   90.00000000
_symmetry_Int_Tables_number   1
_chemical_formula_structural   ZnNi
_chemical_formula_sum   'Zn90 Ni90'
_cell_volume   8251.10866270
_cell_formula_units_Z   90
loop_
 _symmetry_equiv_pos_site_id
 _symmetry_equiv_pos_as_xyz
  1  'x, y, z'
loop_
 _atom_site_type_symbol
 _atom_site_label
 _atom_site_symmetry_multiplicity
 _atom_site_fract_x
 _atom_site_fract_y
 _atom_site_fract_z
 _atom_site_occupancy
  Ni  Ni0  1  0.00000000  0.08333333  0.06250000  1.0
  Ni  Ni1  1  0.00000000  0.41666667  0.06250000  1.0
  Ni  Ni2  1  0.00000000  0.75000000  0.06250000  1.0
  Ni  Ni3  1  0.33333333  0.08333333  0.06250000  1.0
  Ni  Ni4  1  0.33333333  0.41666667  0.06250000  1.0
  Ni  Ni5  1  0.33333333  0.75000000  0.06250000  1.0
  Ni  Ni6  1  0.66666667  0.08333333  0.06250000  1.0
  Ni  Ni7  1  0.66666667  0.41666667  0.06250000  1.0
  Ni  Ni8  1  0.66666667  0.75000000  0.06250000  1.0
  Ni  Ni9  1  0.16666667  0.19444444  0.02083333  1.0
  Ni  Ni10  1  0.16666667  0.52777778  0.02083333  1.0
  Ni  Ni11  1  0.16666667  0.86111111  0.02083333  1.0
  Ni  Ni12  1  0.50000000  0.19444444  0.02083333  1.0
  Ni  Ni13  1  0.50000000  0.52777778  0.02083333  1.0
  Ni  Ni14  1  0.50000000  0.86111111  0.02083333  1.0
  Ni  Ni15  1  0.83333333  0.19444444  0.02083333  1.0
  Ni  Ni16  1  0.83333333  0.52777778  0.02083333  1.0
  Ni  Ni17  1  0.83333333  0.86111111  0.02083333  1.0
  Ni  Ni18  1  0.00000000  0.19444444  0.14583333  1.0
  Ni  Ni19  1  0.00000000  0.52777778  0.14583333  1.0
  Ni  Ni20  1  0.00000000  0.86111111  0.14583333  1.0
  Ni  Ni21  1  0.33333333  0.19444444  0.14583333  1.0
  Ni  Ni22  1  0.33333333  0.52777778  0.14583333  1.0
  Ni  Ni23  1  0.33333333  0.86111111  0.14583333  1.0
  Ni  Ni24  1  0.66666667  0.19444444  0.14583333  1.0
  Ni  Ni25  1  0.66666667  0.52777778  0.14583333  1.0
  Ni  Ni26  1  0.66666667  0.86111111  0.14583333  1.0
  Ni  Ni27  1  0.16666667  0.30555556  0.10416667  1.0
  Ni  Ni28  1  0.16666667  0.63888889  0.10416667  1.0
  Ni  Ni29  1  0.16666667  0.97222222  0.10416667  1.0
  Ni  Ni30  1  0.50000000  0.30555556  0.10416667  1.0
  Ni  Ni31  1  0.50000000  0.63888889  0.10416667  1.0
  Ni  Ni32  1  0.50000000  0.97222222  0.10416667  1.0
  Ni  Ni33  1  0.83333333  0.30555556  0.10416667  1.0
  Ni  Ni34  1  0.83333333  0.63888889  0.10416667  1.0
  Ni  Ni35  1  0.83333333  0.97222222  0.10416667  1.0
  Ni  Ni36  1  0.00000000  0.30555556  0.22916667  1.0
  Ni  Ni37  1  0.00000000  0.63888889  0.22916667  1.0
  Ni  Ni38  1  0.00000000  0.97222222  0.22916667  1.0
  Ni  Ni39  1  0.33333333  0.30555556  0.22916667  1.0
  Ni  Ni40  1  0.33333333  0.63888889  0.22916667  1.0
  Ni  Ni41  1  0.33333333  0.97222222  0.22916667  1.0
  Ni  Ni42  1  0.66666667  0.30555556  0.22916667  1.0
  Ni  Ni43  1  0.66666667  0.63888889  0.22916667  1.0
  Ni  Ni44  1  0.66666667  0.97222222  0.22916667  1.0
  Ni  Ni45  1  0.16666667  0.08333333  0.18750000  1.0
  Ni  Ni46  1  0.16666667  0.41666667  0.18750000  1.0
  Ni  Ni47  1  0.16666667  0.75000000  0.18750000  1.0
  Ni  Ni48  1  0.50000000  0.08333333  0.18750000  1.0
  Ni  Ni49  1  0.50000000  0.41666667  0.18750000  1.0
  Ni  Ni50  1  0.50000000  0.75000000  0.18750000  1.0
  Ni  Ni51  1  0.83333333  0.08333333  0.18750000  1.0
  Ni  Ni52  1  0.83333333  0.41666667  0.18750000  1.0
  Ni  Ni53  1  0.83333333  0.75000000  0.18750000  1.0
  Ni  Ni54  1  0.00000000  0.08333333  0.31250000  1.0
  Ni  Ni55  1  0.00000000  0.41666667  0.31250000  1.0
  Ni  Ni56  1  0.00000000  0.75000000  0.31250000  1.0
  Ni  Ni57  1  0.33333333  0.08333333  0.31250000  1.0
  Ni  Ni58  1  0.33333333  0.41666667  0.31250000  1.0
  Ni  Ni59  1  0.33333333  0.75000000  0.31250000  1.0
  Ni  Ni60  1  0.66666667  0.08333333  0.31250000  1.0
  Ni  Ni61  1  0.66666667  0.41666667  0.31250000  1.0
  Ni  Ni62  1  0.66666667  0.75000000  0.31250000  1.0
  Ni  Ni63  1  0.16666667  0.19444444  0.27083333  1.0
  Ni  Ni64  1  0.16666667  0.52777778  0.27083333  1.0
  Ni  Ni65  1  0.16666667  0.86111111  0.27083333  1.0
  Ni  Ni66  1  0.50000000  0.19444444  0.27083333  1.0
  Ni  Ni67  1  0.50000000  0.52777778  0.27083333  1.0
  Ni  Ni68  1  0.50000000  0.86111111  0.27083333  1.0
  Ni  Ni69  1  0.83333333  0.19444444  0.27083333  1.0
  Ni  Ni70  1  0.83333333  0.52777778  0.27083333  1.0
  Ni  Ni71  1  0.83333333  0.86111111  0.27083333  1.0
  Ni  Ni72  1  0.00000000  0.19444444  0.39583333  1.0
  Ni  Ni73  1  0.00000000  0.52777778  0.39583333  1.0
  Ni  Ni74  1  0.00000000  0.86111111  0.39583333  1.0
  Ni  Ni75  1  0.33333333  0.19444444  0.39583333  1.0
  Ni  Ni76  1  0.33333333  0.52777778  0.39583333  1.0
  Ni  Ni77  1  0.33333333  0.86111111  0.39583333  1.0
  Ni  Ni78  1  0.66666667  0.19444444  0.39583333  1.0
  Ni  Ni79  1  0.66666667  0.52777778  0.39583333  1.0
  Ni  Ni80  1  0.66666667  0.86111111  0.39583333  1.0
  Ni  Ni81  1  0.16666667  0.30555556  0.35416667  1.0
  Ni  Ni82  1  0.16666667  0.63888889  0.35416667  1.0
  Ni  Ni83  1  0.16666667  0.97222222  0.35416667  1.0
  Ni  Ni84  1  0.50000000  0.30555556  0.35416667  1.0
  Ni  Ni85  1  0.50000000  0.63888889  0.35416667  1.0
  Ni  Ni86  1  0.50000000  0.97222222  0.35416667  1.0
  Ni  Ni87  1  0.83333333  0.30555556  0.35416667  1.0
  Ni  Ni88  1  0.83333333  0.63888889  0.35416667  1.0
  Ni  Ni89  1  0.83333333  0.97222222  0.35416667  1.0
  Zn  Zn90  1  0.00000000  0.16666667  0.06250000  1.0
  Zn  Zn91  1  0.00000000  0.50000000  0.06250000  1.0
  Zn  Zn92  1  0.00000000  0.83333333  0.06250000  1.0
  Zn  Zn93  1  0.33333333  0.16666667  0.06250000  1.0
  Zn  Zn94  1  0.33333333  0.50000000  0.06250000  1.0
  Zn  Zn95  1  0.33333333  0.83333333  0.06250000  1.0
  Zn  Zn96  1  0.66666667  0.16666667  0.06250000  1.0
  Zn  Zn97  1  0.66666667  0.50000000  0.06250000  1.0
  Zn  Zn98  1  0.66666667  0.83333333  0.06250000  1.0
  Zn  Zn99  1  0.16666667  0.27777778  0.02083333  1.0
  Zn  Zn100  1  0.16666667  0.61111111  0.02083333  1.0
  Zn  Zn101  1  0.16666667  0.94444444  0.02083333  1.0
  Zn  Zn102  1  0.50000000  0.27777778  0.02083333  1.0
  Zn  Zn103  1  0.50000000  0.61111111  0.02083333  1.0
  Zn  Zn104  1  0.50000000  0.94444444  0.02083333  1.0
  Zn  Zn105  1  0.83333333  0.27777778  0.02083333  1.0
  Zn  Zn106  1  0.83333333  0.61111111  0.02083333  1.0
  Zn  Zn107  1  0.83333333  0.94444444  0.02083333  1.0
  Zn  Zn108  1  0.00000000  0.27777778  0.14583333  1.0
  Zn  Zn109  1  0.00000000  0.61111111  0.14583333  1.0
  Zn  Zn110  1  0.00000000  0.94444444  0.14583333  1.0
  Zn  Zn111  1  0.33333333  0.27777778  0.14583333  1.0
  Zn  Zn112  1  0.33333333  0.61111111  0.14583333  1.0
  Zn  Zn113  1  0.33333333  0.94444444  0.14583333  1.0
  Zn  Zn114  1  0.66666667  0.27777778  0.14583333  1.0
  Zn  Zn115  1  0.66666667  0.61111111  0.14583333  1.0
  Zn  Zn116  1  0.66666667  0.94444444  0.14583333  1.0
  Zn  Zn117  1  0.16666667  0.05555556  0.10416667  1.0
  Zn  Zn118  1  0.16666667  0.38888889  0.10416667  1.0
  Zn  Zn119  1  0.16666667  0.72222222  0.10416667  1.0
  Zn  Zn120  1  0.50000000  0.05555556  0.10416667  1.0
  Zn  Zn121  1  0.50000000  0.38888889  0.10416667  1.0
  Zn  Zn122  1  0.50000000  0.72222222  0.10416667  1.0
  Zn  Zn123  1  0.83333333  0.05555556  0.10416667  1.0
  Zn  Zn124  1  0.83333333  0.38888889  0.10416667  1.0
  Zn  Zn125  1  0.83333333  0.72222222  0.10416667  1.0
  Zn  Zn126  1  0.00000000  0.05555556  0.22916667  1.0
  Zn  Zn127  1  0.00000000  0.38888889  0.22916667  1.0
  Zn  Zn128  1  0.00000000  0.72222222  0.22916667  1.0
  Zn  Zn129  1  0.33333333  0.05555556  0.22916667  1.0
  Zn  Zn130  1  0.33333333  0.38888889  0.22916667  1.0
  Zn  Zn131  1  0.33333333  0.72222222  0.22916667  1.0
  Zn  Zn132  1  0.66666667  0.05555556  0.22916667  1.0
  Zn  Zn133  1  0.66666667  0.38888889  0.22916667  1.0
  Zn  Zn134  1  0.66666667  0.72222222  0.22916667  1.0
  Zn  Zn135  1  0.16666667  0.16666667  0.18750000  1.0
  Zn  Zn136  1  0.16666667  0.50000000  0.18750000  1.0
  Zn  Zn137  1  0.16666667  0.83333333  0.18750000  1.0
  Zn  Zn138  1  0.50000000  0.16666667  0.18750000  1.0
  Zn  Zn139  1  0.50000000  0.50000000  0.18750000  1.0
  Zn  Zn140  1  0.50000000  0.83333333  0.18750000  1.0
  Zn  Zn141  1  0.83333333  0.16666667  0.18750000  1.0
  Zn  Zn142  1  0.83333333  0.50000000  0.18750000  1.0
  Zn  Zn143  1  0.83333333  0.83333333  0.18750000  1.0
  Zn  Zn144  1  0.00000000  0.16666667  0.31250000  1.0
  Zn  Zn145  1  0.00000000  0.50000000  0.31250000  1.0
  Zn  Zn146  1  0.00000000  0.83333333  0.31250000  1.0
  Zn  Zn147  1  0.33333333  0.16666667  0.31250000  1.0
  Zn  Zn148  1  0.33333333  0.50000000  0.31250000  1.0
  Zn  Zn149  1  0.33333333  0.83333333  0.31250000  1.0
  Zn  Zn150  1  0.66666667  0.16666667  0.31250000  1.0
  Zn  Zn151  1  0.66666667  0.50000000  0.31250000  1.0
  Zn  Zn152  1  0.66666667  0.83333333  0.31250000  1.0
  Zn  Zn153  1  0.16666667  0.27777778  0.27083333  1.0
  Zn  Zn154  1  0.16666667  0.61111111  0.27083333  1.0
  Zn  Zn155  1  0.16666667  0.94444444  0.27083333  1.0
  Zn  Zn156  1  0.50000000  0.27777778  0.27083333  1.0
  Zn  Zn157  1  0.50000000  0.61111111  0.27083333  1.0
  Zn  Zn158  1  0.50000000  0.94444444  0.27083333  1.0
  Zn  Zn159  1  0.83333333  0.27777778  0.27083333  1.0
  Zn  Zn160  1  0.83333333  0.61111111  0.27083333  1.0
  Zn  Zn161  1  0.83333333  0.94444444  0.27083333  1.0
  Zn  Zn162  1  0.00000000  0.27777778  0.39583333  1.0
  Zn  Zn163  1  0.00000000  0.61111111  0.39583333  1.0
  Zn  Zn164  1  0.00000000  0.94444444  0.39583333  1.0
  Zn  Zn165  1  0.33333333  0.27777778  0.39583333  1.0
  Zn  Zn166  1  0.33333333  0.61111111  0.39583333  1.0
  Zn  Zn167  1  0.33333333  0.94444444  0.39583333  1.0
  Zn  Zn168  1  0.66666667  0.27777778  0.39583333  1.0
  Zn  Zn169  1  0.66666667  0.61111111  0.39583333  1.0
  Zn  Zn170  1  0.66666667  0.94444444  0.39583333  1.0
  Zn  Zn171  1  0.16666667  0.05555556  0.35416667  1.0
  Zn  Zn172  1  0.16666667  0.38888889  0.35416667  1.0
  Zn  Zn173  1  0.16666667  0.72222222  0.35416667  1.0
  Zn  Zn174  1  0.50000000  0.05555556  0.35416667  1.0
  Zn  Zn175  1  0.50000000  0.38888889  0.35416667  1.0
  Zn  Zn176  1  0.50000000  0.72222222  0.35416667  1.0
  Zn  Zn177  1  0.83333333  0.05555556  0.35416667  1.0
  Zn  Zn178  1  0.83333333  0.38888889  0.35416667  1.0
  Zn  Zn179  1  0.83333333  0.72222222  0.35416667  1.0
