# generated using pymatgen
data_Zr2Ni
_symmetry_space_group_name_H-M   'P 1'
_cell_length_a   27.60473312
_cell_length_b   31.85654658
_cell_length_c   53.00086680
_cell_angle_alpha   119.94183930
_cell_angle_beta   150.23388008
_cell_angle_gamma   64.32497594
_symmetry_Int_Tables_number   1
_chemical_formula_structural   Zr2Ni
_chemical_formula_sum   'Zr288 Ni144'
_cell_volume   20050.95190131
_cell_formula_units_Z   144
loop_
 _symmetry_equiv_pos_site_id
 _symmetry_equiv_pos_as_xyz
  1  'x, y, z'
loop_
 _atom_site_type_symbol
 _atom_site_label
 _atom_site_symmetry_multiplicity
 _atom_site_fract_x
 _atom_site_fract_y
 _atom_site_fract_z
 _atom_site_occupancy
  Zr  Zr0  1  0.25000000  0.02898000  0.00434700  1.0
  Zr  Zr1  1  0.25000000  0.36231333  0.00434700  1.0
  Zr  Zr2  1  0.25000000  0.69564667  0.00434700  1.0
  Zr  Zr3  1  0.58333333  0.02898000  0.00434700  1.0
  Zr  Zr4  1  0.58333333  0.36231333  0.00434700  1.0
  Zr  Zr5  1  0.58333333  0.69564667  0.00434700  1.0
  Zr  Zr6  1  0.91666667  0.02898000  0.00434700  1.0
  Zr  Zr7  1  0.91666667  0.36231333  0.00434700  1.0
  Zr  Zr8  1  0.91666667  0.69564667  0.00434700  1.0
  Zr  Zr9  1  0.08333333  0.19564667  0.05434700  1.0
  Zr  Zr10  1  0.08333333  0.52898000  0.05434700  1.0
  Zr  Zr11  1  0.08333333  0.86231333  0.05434700  1.0
  Zr  Zr12  1  0.41666667  0.19564667  0.05434700  1.0
  Zr  Zr13  1  0.41666667  0.52898000  0.05434700  1.0
  Zr  Zr14  1  0.41666667  0.86231333  0.05434700  1.0
  Zr  Zr15  1  0.75000000  0.19564667  0.05434700  1.0
  Zr  Zr16  1  0.75000000  0.52898000  0.05434700  1.0
  Zr  Zr17  1  0.75000000  0.86231333  0.05434700  1.0
  Zr  Zr18  1  0.25000000  0.13768667  0.03695900  1.0
  Zr  Zr19  1  0.25000000  0.47102000  0.03695900  1.0
  Zr  Zr20  1  0.25000000  0.80435333  0.03695900  1.0
  Zr  Zr21  1  0.58333333  0.13768667  0.03695900  1.0
  Zr  Zr22  1  0.58333333  0.47102000  0.03695900  1.0
  Zr  Zr23  1  0.58333333  0.80435333  0.03695900  1.0
  Zr  Zr24  1  0.91666667  0.13768667  0.03695900  1.0
  Zr  Zr25  1  0.91666667  0.47102000  0.03695900  1.0
  Zr  Zr26  1  0.91666667  0.80435333  0.03695900  1.0
  Zr  Zr27  1  0.08333333  0.30435333  0.08695900  1.0
  Zr  Zr28  1  0.08333333  0.63768667  0.08695900  1.0
  Zr  Zr29  1  0.08333333  0.97102000  0.08695900  1.0
  Zr  Zr30  1  0.41666667  0.30435333  0.08695900  1.0
  Zr  Zr31  1  0.41666667  0.63768667  0.08695900  1.0
  Zr  Zr32  1  0.41666667  0.97102000  0.08695900  1.0
  Zr  Zr33  1  0.75000000  0.30435333  0.08695900  1.0
  Zr  Zr34  1  0.75000000  0.63768667  0.08695900  1.0
  Zr  Zr35  1  0.75000000  0.97102000  0.08695900  1.0
  Zr  Zr36  1  0.02898000  0.08333333  0.02065300  1.0
  Zr  Zr37  1  0.02898000  0.41666667  0.02065300  1.0
  Zr  Zr38  1  0.02898000  0.75000000  0.02065300  1.0
  Zr  Zr39  1  0.36231333  0.08333333  0.02065300  1.0
  Zr  Zr40  1  0.36231333  0.41666667  0.02065300  1.0
  Zr  Zr41  1  0.36231333  0.75000000  0.02065300  1.0
  Zr  Zr42  1  0.69564667  0.08333333  0.02065300  1.0
  Zr  Zr43  1  0.69564667  0.41666667  0.02065300  1.0
  Zr  Zr44  1  0.69564667  0.75000000  0.02065300  1.0
  Zr  Zr45  1  0.19564667  0.25000000  0.07065300  1.0
  Zr  Zr46  1  0.19564667  0.58333333  0.07065300  1.0
  Zr  Zr47  1  0.19564667  0.91666667  0.07065300  1.0
  Zr  Zr48  1  0.52898000  0.25000000  0.07065300  1.0
  Zr  Zr49  1  0.52898000  0.58333333  0.07065300  1.0
  Zr  Zr50  1  0.52898000  0.91666667  0.07065300  1.0
  Zr  Zr51  1  0.86231333  0.25000000  0.07065300  1.0
  Zr  Zr52  1  0.86231333  0.58333333  0.07065300  1.0
  Zr  Zr53  1  0.86231333  0.91666667  0.07065300  1.0
  Zr  Zr54  1  0.13768667  0.08333333  0.02065300  1.0
  Zr  Zr55  1  0.13768667  0.41666667  0.02065300  1.0
  Zr  Zr56  1  0.13768667  0.75000000  0.02065300  1.0
  Zr  Zr57  1  0.47102000  0.08333333  0.02065300  1.0
  Zr  Zr58  1  0.47102000  0.41666667  0.02065300  1.0
  Zr  Zr59  1  0.47102000  0.75000000  0.02065300  1.0
  Zr  Zr60  1  0.80435333  0.08333333  0.02065300  1.0
  Zr  Zr61  1  0.80435333  0.41666667  0.02065300  1.0
  Zr  Zr62  1  0.80435333  0.75000000  0.02065300  1.0
  Zr  Zr63  1  0.30435333  0.25000000  0.07065300  1.0
  Zr  Zr64  1  0.30435333  0.58333333  0.07065300  1.0
  Zr  Zr65  1  0.30435333  0.91666667  0.07065300  1.0
  Zr  Zr66  1  0.63768667  0.25000000  0.07065300  1.0
  Zr  Zr67  1  0.63768667  0.58333333  0.07065300  1.0
  Zr  Zr68  1  0.63768667  0.91666667  0.07065300  1.0
  Zr  Zr69  1  0.97102000  0.25000000  0.07065300  1.0
  Zr  Zr70  1  0.97102000  0.58333333  0.07065300  1.0
  Zr  Zr71  1  0.97102000  0.91666667  0.07065300  1.0
  Ni  Ni72  1  0.25000000  0.16666667  0.09565300  1.0
  Ni  Ni73  1  0.25000000  0.50000000  0.09565300  1.0
  Ni  Ni74  1  0.25000000  0.83333333  0.09565300  1.0
  Ni  Ni75  1  0.58333333  0.16666667  0.09565300  1.0
  Ni  Ni76  1  0.58333333  0.50000000  0.09565300  1.0
  Ni  Ni77  1  0.58333333  0.83333333  0.09565300  1.0
  Ni  Ni78  1  0.91666667  0.16666667  0.09565300  1.0
  Ni  Ni79  1  0.91666667  0.50000000  0.09565300  1.0
  Ni  Ni80  1  0.91666667  0.83333333  0.09565300  1.0
  Ni  Ni81  1  0.08333333  0.00000000  0.04565300  1.0
  Ni  Ni82  1  0.08333333  0.33333333  0.04565300  1.0
  Ni  Ni83  1  0.08333333  0.66666667  0.04565300  1.0
  Ni  Ni84  1  0.41666667  0.00000000  0.04565300  1.0
  Ni  Ni85  1  0.41666667  0.33333333  0.04565300  1.0
  Ni  Ni86  1  0.41666667  0.66666667  0.04565300  1.0
  Ni  Ni87  1  0.75000000  0.00000000  0.04565300  1.0
  Ni  Ni88  1  0.75000000  0.33333333  0.04565300  1.0
  Ni  Ni89  1  0.75000000  0.66666667  0.04565300  1.0
  Ni  Ni90  1  0.08333333  0.16666667  0.09565300  1.0
  Ni  Ni91  1  0.08333333  0.50000000  0.09565300  1.0
  Ni  Ni92  1  0.08333333  0.83333333  0.09565300  1.0
  Ni  Ni93  1  0.41666667  0.16666667  0.09565300  1.0
  Ni  Ni94  1  0.41666667  0.50000000  0.09565300  1.0
  Ni  Ni95  1  0.41666667  0.83333333  0.09565300  1.0
  Ni  Ni96  1  0.75000000  0.16666667  0.09565300  1.0
  Ni  Ni97  1  0.75000000  0.50000000  0.09565300  1.0
  Ni  Ni98  1  0.75000000  0.83333333  0.09565300  1.0
  Ni  Ni99  1  0.25000000  0.00000000  0.04565300  1.0
  Ni  Ni100  1  0.25000000  0.33333333  0.04565300  1.0
  Ni  Ni101  1  0.25000000  0.66666667  0.04565300  1.0
  Ni  Ni102  1  0.58333333  0.00000000  0.04565300  1.0
  Ni  Ni103  1  0.58333333  0.33333333  0.04565300  1.0
  Ni  Ni104  1  0.58333333  0.66666667  0.04565300  1.0
  Ni  Ni105  1  0.91666667  0.00000000  0.04565300  1.0
  Ni  Ni106  1  0.91666667  0.33333333  0.04565300  1.0
  Ni  Ni107  1  0.91666667  0.66666667  0.04565300  1.0
  Zr  Zr108  1  0.25000000  0.02898000  0.10434700  1.0
  Zr  Zr109  1  0.25000000  0.36231333  0.10434700  1.0
  Zr  Zr110  1  0.25000000  0.69564667  0.10434700  1.0
  Zr  Zr111  1  0.58333333  0.02898000  0.10434700  1.0
  Zr  Zr112  1  0.58333333  0.36231333  0.10434700  1.0
  Zr  Zr113  1  0.58333333  0.69564667  0.10434700  1.0
  Zr  Zr114  1  0.91666667  0.02898000  0.10434700  1.0
  Zr  Zr115  1  0.91666667  0.36231333  0.10434700  1.0
  Zr  Zr116  1  0.91666667  0.69564667  0.10434700  1.0
  Zr  Zr117  1  0.08333333  0.19564667  0.15434700  1.0
  Zr  Zr118  1  0.08333333  0.52898000  0.15434700  1.0
  Zr  Zr119  1  0.08333333  0.86231333  0.15434700  1.0
  Zr  Zr120  1  0.41666667  0.19564667  0.15434700  1.0
  Zr  Zr121  1  0.41666667  0.52898000  0.15434700  1.0
  Zr  Zr122  1  0.41666667  0.86231333  0.15434700  1.0
  Zr  Zr123  1  0.75000000  0.19564667  0.15434700  1.0
  Zr  Zr124  1  0.75000000  0.52898000  0.15434700  1.0
  Zr  Zr125  1  0.75000000  0.86231333  0.15434700  1.0
  Zr  Zr126  1  0.25000000  0.13768667  0.13695900  1.0
  Zr  Zr127  1  0.25000000  0.47102000  0.13695900  1.0
  Zr  Zr128  1  0.25000000  0.80435333  0.13695900  1.0
  Zr  Zr129  1  0.58333333  0.13768667  0.13695900  1.0
  Zr  Zr130  1  0.58333333  0.47102000  0.13695900  1.0
  Zr  Zr131  1  0.58333333  0.80435333  0.13695900  1.0
  Zr  Zr132  1  0.91666667  0.13768667  0.13695900  1.0
  Zr  Zr133  1  0.91666667  0.47102000  0.13695900  1.0
  Zr  Zr134  1  0.91666667  0.80435333  0.13695900  1.0
  Zr  Zr135  1  0.08333333  0.30435333  0.18695900  1.0
  Zr  Zr136  1  0.08333333  0.63768667  0.18695900  1.0
  Zr  Zr137  1  0.08333333  0.97102000  0.18695900  1.0
  Zr  Zr138  1  0.41666667  0.30435333  0.18695900  1.0
  Zr  Zr139  1  0.41666667  0.63768667  0.18695900  1.0
  Zr  Zr140  1  0.41666667  0.97102000  0.18695900  1.0
  Zr  Zr141  1  0.75000000  0.30435333  0.18695900  1.0
  Zr  Zr142  1  0.75000000  0.63768667  0.18695900  1.0
  Zr  Zr143  1  0.75000000  0.97102000  0.18695900  1.0
  Zr  Zr144  1  0.02898000  0.08333333  0.12065300  1.0
  Zr  Zr145  1  0.02898000  0.41666667  0.12065300  1.0
  Zr  Zr146  1  0.02898000  0.75000000  0.12065300  1.0
  Zr  Zr147  1  0.36231333  0.08333333  0.12065300  1.0
  Zr  Zr148  1  0.36231333  0.41666667  0.12065300  1.0
  Zr  Zr149  1  0.36231333  0.75000000  0.12065300  1.0
  Zr  Zr150  1  0.69564667  0.08333333  0.12065300  1.0
  Zr  Zr151  1  0.69564667  0.41666667  0.12065300  1.0
  Zr  Zr152  1  0.69564667  0.75000000  0.12065300  1.0
  Zr  Zr153  1  0.19564667  0.25000000  0.17065300  1.0
  Zr  Zr154  1  0.19564667  0.58333333  0.17065300  1.0
  Zr  Zr155  1  0.19564667  0.91666667  0.17065300  1.0
  Zr  Zr156  1  0.52898000  0.25000000  0.17065300  1.0
  Zr  Zr157  1  0.52898000  0.58333333  0.17065300  1.0
  Zr  Zr158  1  0.52898000  0.91666667  0.17065300  1.0
  Zr  Zr159  1  0.86231333  0.25000000  0.17065300  1.0
  Zr  Zr160  1  0.86231333  0.58333333  0.17065300  1.0
  Zr  Zr161  1  0.86231333  0.91666667  0.17065300  1.0
  Zr  Zr162  1  0.13768667  0.08333333  0.12065300  1.0
  Zr  Zr163  1  0.13768667  0.41666667  0.12065300  1.0
  Zr  Zr164  1  0.13768667  0.75000000  0.12065300  1.0
  Zr  Zr165  1  0.47102000  0.08333333  0.12065300  1.0
  Zr  Zr166  1  0.47102000  0.41666667  0.12065300  1.0
  Zr  Zr167  1  0.47102000  0.75000000  0.12065300  1.0
  Zr  Zr168  1  0.80435333  0.08333333  0.12065300  1.0
  Zr  Zr169  1  0.80435333  0.41666667  0.12065300  1.0
  Zr  Zr170  1  0.80435333  0.75000000  0.12065300  1.0
  Zr  Zr171  1  0.30435333  0.25000000  0.17065300  1.0
  Zr  Zr172  1  0.30435333  0.58333333  0.17065300  1.0
  Zr  Zr173  1  0.30435333  0.91666667  0.17065300  1.0
  Zr  Zr174  1  0.63768667  0.25000000  0.17065300  1.0
  Zr  Zr175  1  0.63768667  0.58333333  0.17065300  1.0
  Zr  Zr176  1  0.63768667  0.91666667  0.17065300  1.0
  Zr  Zr177  1  0.97102000  0.25000000  0.17065300  1.0
  Zr  Zr178  1  0.97102000  0.58333333  0.17065300  1.0
  Zr  Zr179  1  0.97102000  0.91666667  0.17065300  1.0
  Ni  Ni180  1  0.25000000  0.16666667  0.19565300  1.0
  Ni  Ni181  1  0.25000000  0.50000000  0.19565300  1.0
  Ni  Ni182  1  0.25000000  0.83333333  0.19565300  1.0
  Ni  Ni183  1  0.58333333  0.16666667  0.19565300  1.0
  Ni  Ni184  1  0.58333333  0.50000000  0.19565300  1.0
  Ni  Ni185  1  0.58333333  0.83333333  0.19565300  1.0
  Ni  Ni186  1  0.91666667  0.16666667  0.19565300  1.0
  Ni  Ni187  1  0.91666667  0.50000000  0.19565300  1.0
  Ni  Ni188  1  0.91666667  0.83333333  0.19565300  1.0
  Ni  Ni189  1  0.08333333  0.00000000  0.14565300  1.0
  Ni  Ni190  1  0.08333333  0.33333333  0.14565300  1.0
  Ni  Ni191  1  0.08333333  0.66666667  0.14565300  1.0
  Ni  Ni192  1  0.41666667  0.00000000  0.14565300  1.0
  Ni  Ni193  1  0.41666667  0.33333333  0.14565300  1.0
  Ni  Ni194  1  0.41666667  0.66666667  0.14565300  1.0
  Ni  Ni195  1  0.75000000  0.00000000  0.14565300  1.0
  Ni  Ni196  1  0.75000000  0.33333333  0.14565300  1.0
  Ni  Ni197  1  0.75000000  0.66666667  0.14565300  1.0
  Ni  Ni198  1  0.08333333  0.16666667  0.19565300  1.0
  Ni  Ni199  1  0.08333333  0.50000000  0.19565300  1.0
  Ni  Ni200  1  0.08333333  0.83333333  0.19565300  1.0
  Ni  Ni201  1  0.41666667  0.16666667  0.19565300  1.0
  Ni  Ni202  1  0.41666667  0.50000000  0.19565300  1.0
  Ni  Ni203  1  0.41666667  0.83333333  0.19565300  1.0
  Ni  Ni204  1  0.75000000  0.16666667  0.19565300  1.0
  Ni  Ni205  1  0.75000000  0.50000000  0.19565300  1.0
  Ni  Ni206  1  0.75000000  0.83333333  0.19565300  1.0
  Ni  Ni207  1  0.25000000  0.00000000  0.14565300  1.0
  Ni  Ni208  1  0.25000000  0.33333333  0.14565300  1.0
  Ni  Ni209  1  0.25000000  0.66666667  0.14565300  1.0
  Ni  Ni210  1  0.58333333  0.00000000  0.14565300  1.0
  Ni  Ni211  1  0.58333333  0.33333333  0.14565300  1.0
  Ni  Ni212  1  0.58333333  0.66666667  0.14565300  1.0
  Ni  Ni213  1  0.91666667  0.00000000  0.14565300  1.0
  Ni  Ni214  1  0.91666667  0.33333333  0.14565300  1.0
  Ni  Ni215  1  0.91666667  0.66666667  0.14565300  1.0
  Zr  Zr216  1  0.25000000  0.02898000  0.20434700  1.0
  Zr  Zr217  1  0.25000000  0.36231333  0.20434700  1.0
  Zr  Zr218  1  0.25000000  0.69564667  0.20434700  1.0
  Zr  Zr219  1  0.58333333  0.02898000  0.20434700  1.0
  Zr  Zr220  1  0.58333333  0.36231333  0.20434700  1.0
  Zr  Zr221  1  0.58333333  0.69564667  0.20434700  1.0
  Zr  Zr222  1  0.91666667  0.02898000  0.20434700  1.0
  Zr  Zr223  1  0.91666667  0.36231333  0.20434700  1.0
  Zr  Zr224  1  0.91666667  0.69564667  0.20434700  1.0
  Zr  Zr225  1  0.08333333  0.19564667  0.25434700  1.0
  Zr  Zr226  1  0.08333333  0.52898000  0.25434700  1.0
  Zr  Zr227  1  0.08333333  0.86231333  0.25434700  1.0
  Zr  Zr228  1  0.41666667  0.19564667  0.25434700  1.0
  Zr  Zr229  1  0.41666667  0.52898000  0.25434700  1.0
  Zr  Zr230  1  0.41666667  0.86231333  0.25434700  1.0
  Zr  Zr231  1  0.75000000  0.19564667  0.25434700  1.0
  Zr  Zr232  1  0.75000000  0.52898000  0.25434700  1.0
  Zr  Zr233  1  0.75000000  0.86231333  0.25434700  1.0
  Zr  Zr234  1  0.25000000  0.13768667  0.23695900  1.0
  Zr  Zr235  1  0.25000000  0.47102000  0.23695900  1.0
  Zr  Zr236  1  0.25000000  0.80435333  0.23695900  1.0
  Zr  Zr237  1  0.58333333  0.13768667  0.23695900  1.0
  Zr  Zr238  1  0.58333333  0.47102000  0.23695900  1.0
  Zr  Zr239  1  0.58333333  0.80435333  0.23695900  1.0
  Zr  Zr240  1  0.91666667  0.13768667  0.23695900  1.0
  Zr  Zr241  1  0.91666667  0.47102000  0.23695900  1.0
  Zr  Zr242  1  0.91666667  0.80435333  0.23695900  1.0
  Zr  Zr243  1  0.08333333  0.30435333  0.28695900  1.0
  Zr  Zr244  1  0.08333333  0.63768667  0.28695900  1.0
  Zr  Zr245  1  0.08333333  0.97102000  0.28695900  1.0
  Zr  Zr246  1  0.41666667  0.30435333  0.28695900  1.0
  Zr  Zr247  1  0.41666667  0.63768667  0.28695900  1.0
  Zr  Zr248  1  0.41666667  0.97102000  0.28695900  1.0
  Zr  Zr249  1  0.75000000  0.30435333  0.28695900  1.0
  Zr  Zr250  1  0.75000000  0.63768667  0.28695900  1.0
  Zr  Zr251  1  0.75000000  0.97102000  0.28695900  1.0
  Zr  Zr252  1  0.02898000  0.08333333  0.22065300  1.0
  Zr  Zr253  1  0.02898000  0.41666667  0.22065300  1.0
  Zr  Zr254  1  0.02898000  0.75000000  0.22065300  1.0
  Zr  Zr255  1  0.36231333  0.08333333  0.22065300  1.0
  Zr  Zr256  1  0.36231333  0.41666667  0.22065300  1.0
  Zr  Zr257  1  0.36231333  0.75000000  0.22065300  1.0
  Zr  Zr258  1  0.69564667  0.08333333  0.22065300  1.0
  Zr  Zr259  1  0.69564667  0.41666667  0.22065300  1.0
  Zr  Zr260  1  0.69564667  0.75000000  0.22065300  1.0
  Zr  Zr261  1  0.19564667  0.25000000  0.27065300  1.0
  Zr  Zr262  1  0.19564667  0.58333333  0.27065300  1.0
  Zr  Zr263  1  0.19564667  0.91666667  0.27065300  1.0
  Zr  Zr264  1  0.52898000  0.25000000  0.27065300  1.0
  Zr  Zr265  1  0.52898000  0.58333333  0.27065300  1.0
  Zr  Zr266  1  0.52898000  0.91666667  0.27065300  1.0
  Zr  Zr267  1  0.86231333  0.25000000  0.27065300  1.0
  Zr  Zr268  1  0.86231333  0.58333333  0.27065300  1.0
  Zr  Zr269  1  0.86231333  0.91666667  0.27065300  1.0
  Zr  Zr270  1  0.13768667  0.08333333  0.22065300  1.0
  Zr  Zr271  1  0.13768667  0.41666667  0.22065300  1.0
  Zr  Zr272  1  0.13768667  0.75000000  0.22065300  1.0
  Zr  Zr273  1  0.47102000  0.08333333  0.22065300  1.0
  Zr  Zr274  1  0.47102000  0.41666667  0.22065300  1.0
  Zr  Zr275  1  0.47102000  0.75000000  0.22065300  1.0
  Zr  Zr276  1  0.80435333  0.08333333  0.22065300  1.0
  Zr  Zr277  1  0.80435333  0.41666667  0.22065300  1.0
  Zr  Zr278  1  0.80435333  0.75000000  0.22065300  1.0
  Zr  Zr279  1  0.30435333  0.25000000  0.27065300  1.0
  Zr  Zr280  1  0.30435333  0.58333333  0.27065300  1.0
  Zr  Zr281  1  0.30435333  0.91666667  0.27065300  1.0
  Zr  Zr282  1  0.63768667  0.25000000  0.27065300  1.0
  Zr  Zr283  1  0.63768667  0.58333333  0.27065300  1.0
  Zr  Zr284  1  0.63768667  0.91666667  0.27065300  1.0
  Zr  Zr285  1  0.97102000  0.25000000  0.27065300  1.0
  Zr  Zr286  1  0.97102000  0.58333333  0.27065300  1.0
  Zr  Zr287  1  0.97102000  0.91666667  0.27065300  1.0
  Ni  Ni288  1  0.25000000  0.16666667  0.29565300  1.0
  Ni  Ni289  1  0.25000000  0.50000000  0.29565300  1.0
  Ni  Ni290  1  0.25000000  0.83333333  0.29565300  1.0
  Ni  Ni291  1  0.58333333  0.16666667  0.29565300  1.0
  Ni  Ni292  1  0.58333333  0.50000000  0.29565300  1.0
  Ni  Ni293  1  0.58333333  0.83333333  0.29565300  1.0
  Ni  Ni294  1  0.91666667  0.16666667  0.29565300  1.0
  Ni  Ni295  1  0.91666667  0.50000000  0.29565300  1.0
  Ni  Ni296  1  0.91666667  0.83333333  0.29565300  1.0
  Ni  Ni297  1  0.08333333  0.00000000  0.24565300  1.0
  Ni  Ni298  1  0.08333333  0.33333333  0.24565300  1.0
  Ni  Ni299  1  0.08333333  0.66666667  0.24565300  1.0
  Ni  Ni300  1  0.41666667  0.00000000  0.24565300  1.0
  Ni  Ni301  1  0.41666667  0.33333333  0.24565300  1.0
  Ni  Ni302  1  0.41666667  0.66666667  0.24565300  1.0
  Ni  Ni303  1  0.75000000  0.00000000  0.24565300  1.0
  Ni  Ni304  1  0.75000000  0.33333333  0.24565300  1.0
  Ni  Ni305  1  0.75000000  0.66666667  0.24565300  1.0
  Ni  Ni306  1  0.08333333  0.16666667  0.29565300  1.0
  Ni  Ni307  1  0.08333333  0.50000000  0.29565300  1.0
  Ni  Ni308  1  0.08333333  0.83333333  0.29565300  1.0
  Ni  Ni309  1  0.41666667  0.16666667  0.29565300  1.0
  Ni  Ni310  1  0.41666667  0.50000000  0.29565300  1.0
  Ni  Ni311  1  0.41666667  0.83333333  0.29565300  1.0
  Ni  Ni312  1  0.75000000  0.16666667  0.29565300  1.0
  Ni  Ni313  1  0.75000000  0.50000000  0.29565300  1.0
  Ni  Ni314  1  0.75000000  0.83333333  0.29565300  1.0
  Ni  Ni315  1  0.25000000  0.00000000  0.24565300  1.0
  Ni  Ni316  1  0.25000000  0.33333333  0.24565300  1.0
  Ni  Ni317  1  0.25000000  0.66666667  0.24565300  1.0
  Ni  Ni318  1  0.58333333  0.00000000  0.24565300  1.0
  Ni  Ni319  1  0.58333333  0.33333333  0.24565300  1.0
  Ni  Ni320  1  0.58333333  0.66666667  0.24565300  1.0
  Ni  Ni321  1  0.91666667  0.00000000  0.24565300  1.0
  Ni  Ni322  1  0.91666667  0.33333333  0.24565300  1.0
  Ni  Ni323  1  0.91666667  0.66666667  0.24565300  1.0
  Zr  Zr324  1  0.25000000  0.02898000  0.30434700  1.0
  Zr  Zr325  1  0.25000000  0.36231333  0.30434700  1.0
  Zr  Zr326  1  0.25000000  0.69564667  0.30434700  1.0
  Zr  Zr327  1  0.58333333  0.02898000  0.30434700  1.0
  Zr  Zr328  1  0.58333333  0.36231333  0.30434700  1.0
  Zr  Zr329  1  0.58333333  0.69564667  0.30434700  1.0
  Zr  Zr330  1  0.91666667  0.02898000  0.30434700  1.0
  Zr  Zr331  1  0.91666667  0.36231333  0.30434700  1.0
  Zr  Zr332  1  0.91666667  0.69564667  0.30434700  1.0
  Zr  Zr333  1  0.08333333  0.19564667  0.35434700  1.0
  Zr  Zr334  1  0.08333333  0.52898000  0.35434700  1.0
  Zr  Zr335  1  0.08333333  0.86231333  0.35434700  1.0
  Zr  Zr336  1  0.41666667  0.19564667  0.35434700  1.0
  Zr  Zr337  1  0.41666667  0.52898000  0.35434700  1.0
  Zr  Zr338  1  0.41666667  0.86231333  0.35434700  1.0
  Zr  Zr339  1  0.75000000  0.19564667  0.35434700  1.0
  Zr  Zr340  1  0.75000000  0.52898000  0.35434700  1.0
  Zr  Zr341  1  0.75000000  0.86231333  0.35434700  1.0
  Zr  Zr342  1  0.25000000  0.13768667  0.33695900  1.0
  Zr  Zr343  1  0.25000000  0.47102000  0.33695900  1.0
  Zr  Zr344  1  0.25000000  0.80435333  0.33695900  1.0
  Zr  Zr345  1  0.58333333  0.13768667  0.33695900  1.0
  Zr  Zr346  1  0.58333333  0.47102000  0.33695900  1.0
  Zr  Zr347  1  0.58333333  0.80435333  0.33695900  1.0
  Zr  Zr348  1  0.91666667  0.13768667  0.33695900  1.0
  Zr  Zr349  1  0.91666667  0.47102000  0.33695900  1.0
  Zr  Zr350  1  0.91666667  0.80435333  0.33695900  1.0
  Zr  Zr351  1  0.08333333  0.30435333  0.38695900  1.0
  Zr  Zr352  1  0.08333333  0.63768667  0.38695900  1.0
  Zr  Zr353  1  0.08333333  0.97102000  0.38695900  1.0
  Zr  Zr354  1  0.41666667  0.30435333  0.38695900  1.0
  Zr  Zr355  1  0.41666667  0.63768667  0.38695900  1.0
  Zr  Zr356  1  0.41666667  0.97102000  0.38695900  1.0
  Zr  Zr357  1  0.75000000  0.30435333  0.38695900  1.0
  Zr  Zr358  1  0.75000000  0.63768667  0.38695900  1.0
  Zr  Zr359  1  0.75000000  0.97102000  0.38695900  1.0
  Zr  Zr360  1  0.02898000  0.08333333  0.32065300  1.0
  Zr  Zr361  1  0.02898000  0.41666667  0.32065300  1.0
  Zr  Zr362  1  0.02898000  0.75000000  0.32065300  1.0
  Zr  Zr363  1  0.36231333  0.08333333  0.32065300  1.0
  Zr  Zr364  1  0.36231333  0.41666667  0.32065300  1.0
  Zr  Zr365  1  0.36231333  0.75000000  0.32065300  1.0
  Zr  Zr366  1  0.69564667  0.08333333  0.32065300  1.0
  Zr  Zr367  1  0.69564667  0.41666667  0.32065300  1.0
  Zr  Zr368  1  0.69564667  0.75000000  0.32065300  1.0
  Zr  Zr369  1  0.19564667  0.25000000  0.37065300  1.0
  Zr  Zr370  1  0.19564667  0.58333333  0.37065300  1.0
  Zr  Zr371  1  0.19564667  0.91666667  0.37065300  1.0
  Zr  Zr372  1  0.52898000  0.25000000  0.37065300  1.0
  Zr  Zr373  1  0.52898000  0.58333333  0.37065300  1.0
  Zr  Zr374  1  0.52898000  0.91666667  0.37065300  1.0
  Zr  Zr375  1  0.86231333  0.25000000  0.37065300  1.0
  Zr  Zr376  1  0.86231333  0.58333333  0.37065300  1.0
  Zr  Zr377  1  0.86231333  0.91666667  0.37065300  1.0
  Zr  Zr378  1  0.13768667  0.08333333  0.32065300  1.0
  Zr  Zr379  1  0.13768667  0.41666667  0.32065300  1.0
  Zr  Zr380  1  0.13768667  0.75000000  0.32065300  1.0
  Zr  Zr381  1  0.47102000  0.08333333  0.32065300  1.0
  Zr  Zr382  1  0.47102000  0.41666667  0.32065300  1.0
  Zr  Zr383  1  0.47102000  0.75000000  0.32065300  1.0
  Zr  Zr384  1  0.80435333  0.08333333  0.32065300  1.0
  Zr  Zr385  1  0.80435333  0.41666667  0.32065300  1.0
  Zr  Zr386  1  0.80435333  0.75000000  0.32065300  1.0
  Zr  Zr387  1  0.30435333  0.25000000  0.37065300  1.0
  Zr  Zr388  1  0.30435333  0.58333333  0.37065300  1.0
  Zr  Zr389  1  0.30435333  0.91666667  0.37065300  1.0
  Zr  Zr390  1  0.63768667  0.25000000  0.37065300  1.0
  Zr  Zr391  1  0.63768667  0.58333333  0.37065300  1.0
  Zr  Zr392  1  0.63768667  0.91666667  0.37065300  1.0
  Zr  Zr393  1  0.97102000  0.25000000  0.37065300  1.0
  Zr  Zr394  1  0.97102000  0.58333333  0.37065300  1.0
  Zr  Zr395  1  0.97102000  0.91666667  0.37065300  1.0
  Ni  Ni396  1  0.25000000  0.16666667  0.39565300  1.0
  Ni  Ni397  1  0.25000000  0.50000000  0.39565300  1.0
  Ni  Ni398  1  0.25000000  0.83333333  0.39565300  1.0
  Ni  Ni399  1  0.58333333  0.16666667  0.39565300  1.0
  Ni  Ni400  1  0.58333333  0.50000000  0.39565300  1.0
  Ni  Ni401  1  0.58333333  0.83333333  0.39565300  1.0
  Ni  Ni402  1  0.91666667  0.16666667  0.39565300  1.0
  Ni  Ni403  1  0.91666667  0.50000000  0.39565300  1.0
  Ni  Ni404  1  0.91666667  0.83333333  0.39565300  1.0
  Ni  Ni405  1  0.08333333  0.00000000  0.34565300  1.0
  Ni  Ni406  1  0.08333333  0.33333333  0.34565300  1.0
  Ni  Ni407  1  0.08333333  0.66666667  0.34565300  1.0
  Ni  Ni408  1  0.41666667  0.00000000  0.34565300  1.0
  Ni  Ni409  1  0.41666667  0.33333333  0.34565300  1.0
  Ni  Ni410  1  0.41666667  0.66666667  0.34565300  1.0
  Ni  Ni411  1  0.75000000  0.00000000  0.34565300  1.0
  Ni  Ni412  1  0.75000000  0.33333333  0.34565300  1.0
  Ni  Ni413  1  0.75000000  0.66666667  0.34565300  1.0
  Ni  Ni414  1  0.08333333  0.16666667  0.39565300  1.0
  Ni  Ni415  1  0.08333333  0.50000000  0.39565300  1.0
  Ni  Ni416  1  0.08333333  0.83333333  0.39565300  1.0
  Ni  Ni417  1  0.41666667  0.16666667  0.39565300  1.0
  Ni  Ni418  1  0.41666667  0.50000000  0.39565300  1.0
  Ni  Ni419  1  0.41666667  0.83333333  0.39565300  1.0
  Ni  Ni420  1  0.75000000  0.16666667  0.39565300  1.0
  Ni  Ni421  1  0.75000000  0.50000000  0.39565300  1.0
  Ni  Ni422  1  0.75000000  0.83333333  0.39565300  1.0
  Ni  Ni423  1  0.25000000  0.00000000  0.34565300  1.0
  Ni  Ni424  1  0.25000000  0.33333333  0.34565300  1.0
  Ni  Ni425  1  0.25000000  0.66666667  0.34565300  1.0
  Ni  Ni426  1  0.58333333  0.00000000  0.34565300  1.0
  Ni  Ni427  1  0.58333333  0.33333333  0.34565300  1.0
  Ni  Ni428  1  0.58333333  0.66666667  0.34565300  1.0
  Ni  Ni429  1  0.91666667  0.00000000  0.34565300  1.0
  Ni  Ni430  1  0.91666667  0.33333333  0.34565300  1.0
  Ni  Ni431  1  0.91666667  0.66666667  0.34565300  1.0
