# generated using pymatgen
data_Zr2Ni7
_symmetry_space_group_name_H-M   'P 1'
_cell_length_a   14.03028001
_cell_length_b   47.15136271
_cell_length_c   37.74861624
_cell_angle_alpha   105.53835532
_cell_angle_beta   60.29272913
_cell_angle_gamma   68.06851399
_symmetry_Int_Tables_number   1
_chemical_formula_structural   Zr2Ni7
_chemical_formula_sum   'Zr108 Ni378'
_cell_volume   16639.66179251
_cell_formula_units_Z   54
loop_
 _symmetry_equiv_pos_site_id
 _symmetry_equiv_pos_as_xyz
  1  'x, y, z'
loop_
 _atom_site_type_symbol
 _atom_site_label
 _atom_site_symmetry_multiplicity
 _atom_site_fract_x
 _atom_site_fract_y
 _atom_site_fract_z
 _atom_site_occupancy
  Zr  Zr0  1  0.01334567  0.03785233  0.01780488  1.0
  Zr  Zr1  1  0.01334567  0.37118567  0.01780488  1.0
  Zr  Zr2  1  0.01334567  0.70451900  0.01780488  1.0
  Zr  Zr3  1  0.34667900  0.03785233  0.01780488  1.0
  Zr  Zr4  1  0.34667900  0.37118567  0.01780488  1.0
  Zr  Zr5  1  0.34667900  0.70451900  0.01780488  1.0
  Zr  Zr6  1  0.68001233  0.03785233  0.01780488  1.0
  Zr  Zr7  1  0.68001233  0.37118567  0.01780488  1.0
  Zr  Zr8  1  0.68001233  0.70451900  0.01780488  1.0
  Zr  Zr9  1  0.14622467  0.12842467  0.08573412  1.0
  Zr  Zr10  1  0.14622467  0.46175800  0.08573413  1.0
  Zr  Zr11  1  0.14622467  0.79509133  0.08573412  1.0
  Zr  Zr12  1  0.47955800  0.12842467  0.08573412  1.0
  Zr  Zr13  1  0.47955800  0.46175800  0.08573413  1.0
  Zr  Zr14  1  0.47955800  0.79509133  0.08573413  1.0
  Zr  Zr15  1  0.81289133  0.12842467  0.08573412  1.0
  Zr  Zr16  1  0.81289133  0.46175800  0.08573413  1.0
  Zr  Zr17  1  0.81289133  0.79509133  0.08573412  1.0
  Zr  Zr18  1  0.18710867  0.20490867  0.01809713  1.0
  Zr  Zr19  1  0.18710867  0.53824200  0.01809713  1.0
  Zr  Zr20  1  0.18710867  0.87157533  0.01809713  1.0
  Zr  Zr21  1  0.52044200  0.20490867  0.01809713  1.0
  Zr  Zr22  1  0.52044200  0.53824200  0.01809713  1.0
  Zr  Zr23  1  0.52044200  0.87157533  0.01809713  1.0
  Zr  Zr24  1  0.85377533  0.20490867  0.01809713  1.0
  Zr  Zr25  1  0.85377533  0.53824200  0.01809713  1.0
  Zr  Zr26  1  0.85377533  0.87157533  0.01809713  1.0
  Zr  Zr27  1  0.31998767  0.29548100  0.08602638  1.0
  Zr  Zr28  1  0.31998767  0.62881433  0.08602638  1.0
  Zr  Zr29  1  0.31998767  0.96214767  0.08602638  1.0
  Zr  Zr30  1  0.65332100  0.29548100  0.08602638  1.0
  Zr  Zr31  1  0.65332100  0.62881433  0.08602637  1.0
  Zr  Zr32  1  0.65332100  0.96214767  0.08602638  1.0
  Zr  Zr33  1  0.98665433  0.29548100  0.08602638  1.0
  Zr  Zr34  1  0.98665433  0.62881433  0.08602638  1.0
  Zr  Zr35  1  0.98665433  0.96214767  0.08602638  1.0
  Ni  Ni36  1  0.26386300  0.02601700  0.09275363  1.0
  Ni  Ni37  1  0.26386300  0.35935033  0.09275363  1.0
  Ni  Ni38  1  0.26386300  0.69268367  0.09275362  1.0
  Ni  Ni39  1  0.59719633  0.02601700  0.09275363  1.0
  Ni  Ni40  1  0.59719633  0.35935033  0.09275362  1.0
  Ni  Ni41  1  0.59719633  0.69268367  0.09275362  1.0
  Ni  Ni42  1  0.93052967  0.02601700  0.09275362  1.0
  Ni  Ni43  1  0.93052967  0.35935033  0.09275362  1.0
  Ni  Ni44  1  0.93052967  0.69268367  0.09275362  1.0
  Ni  Ni45  1  0.15406367  0.02601700  0.05010313  1.0
  Ni  Ni46  1  0.15406367  0.35935033  0.05010312  1.0
  Ni  Ni47  1  0.15406367  0.69268367  0.05010312  1.0
  Ni  Ni48  1  0.48739700  0.02601700  0.05010313  1.0
  Ni  Ni49  1  0.48739700  0.35935033  0.05010312  1.0
  Ni  Ni50  1  0.48739700  0.69268367  0.05010313  1.0
  Ni  Ni51  1  0.82073033  0.02601700  0.05010312  1.0
  Ni  Ni52  1  0.82073033  0.35935033  0.05010313  1.0
  Ni  Ni53  1  0.82073033  0.69268367  0.05010312  1.0
  Ni  Ni54  1  0.24507667  0.08326533  0.11382038  1.0
  Ni  Ni55  1  0.24507667  0.41659867  0.11382038  1.0
  Ni  Ni56  1  0.24507667  0.74993200  0.11382038  1.0
  Ni  Ni57  1  0.57841000  0.08326533  0.11382038  1.0
  Ni  Ni58  1  0.57841000  0.41659867  0.11382038  1.0
  Ni  Ni59  1  0.57841000  0.74993200  0.11382038  1.0
  Ni  Ni60  1  0.91174333  0.08326533  0.11382038  1.0
  Ni  Ni61  1  0.91174333  0.41659867  0.11382038  1.0
  Ni  Ni62  1  0.91174333  0.74993200  0.11382038  1.0
  Ni  Ni63  1  0.07695867  0.08326533  0.11490888  1.0
  Ni  Ni64  1  0.07695867  0.41659867  0.11490888  1.0
  Ni  Ni65  1  0.07695867  0.74993200  0.11490887  1.0
  Ni  Ni66  1  0.41029200  0.08326533  0.11490888  1.0
  Ni  Ni67  1  0.41029200  0.41659867  0.11490887  1.0
  Ni  Ni68  1  0.41029200  0.74993200  0.11490888  1.0
  Ni  Ni69  1  0.74362533  0.08326533  0.11490887  1.0
  Ni  Ni70  1  0.74362533  0.41659867  0.11490887  1.0
  Ni  Ni71  1  0.74362533  0.74993200  0.11490887  1.0
  Ni  Ni72  1  0.07938867  0.08346833  0.05201687  1.0
  Ni  Ni73  1  0.07938867  0.41680167  0.05201688  1.0
  Ni  Ni74  1  0.07938867  0.75013500  0.05201688  1.0
  Ni  Ni75  1  0.41272200  0.08346833  0.05201687  1.0
  Ni  Ni76  1  0.41272200  0.41680167  0.05201688  1.0
  Ni  Ni77  1  0.41272200  0.75013500  0.05201688  1.0
  Ni  Ni78  1  0.74605533  0.08346833  0.05201687  1.0
  Ni  Ni79  1  0.74605533  0.41680167  0.05201688  1.0
  Ni  Ni80  1  0.74605533  0.75013500  0.05201688  1.0
  Ni  Ni81  1  0.22806867  0.14065533  0.01153750  1.0
  Ni  Ni82  1  0.22806867  0.47398867  0.01153750  1.0
  Ni  Ni83  1  0.22806867  0.80732200  0.01153750  1.0
  Ni  Ni84  1  0.56140200  0.14065533  0.01153750  1.0
  Ni  Ni85  1  0.56140200  0.47398867  0.01153750  1.0
  Ni  Ni86  1  0.56140200  0.80732200  0.01153750  1.0
  Ni  Ni87  1  0.89473533  0.14065533  0.01153750  1.0
  Ni  Ni88  1  0.89473533  0.47398867  0.01153750  1.0
  Ni  Ni89  1  0.89473533  0.80732200  0.01153750  1.0
  Ni  Ni90  1  0.00574967  0.14065533  0.05327675  1.0
  Ni  Ni91  1  0.00574967  0.47398867  0.05327675  1.0
  Ni  Ni92  1  0.00574967  0.80732200  0.05327675  1.0
  Ni  Ni93  1  0.33908300  0.14065533  0.05327675  1.0
  Ni  Ni94  1  0.33908300  0.47398867  0.05327675  1.0
  Ni  Ni95  1  0.33908300  0.80732200  0.05327675  1.0
  Ni  Ni96  1  0.67241633  0.14065533  0.05327675  1.0
  Ni  Ni97  1  0.67241633  0.47398867  0.05327675  1.0
  Ni  Ni98  1  0.67241633  0.80732200  0.05327675  1.0
  Ni  Ni99  1  0.10526467  0.19267800  0.09229375  1.0
  Ni  Ni100  1  0.10526467  0.52601133  0.09229375  1.0
  Ni  Ni101  1  0.10526467  0.85934467  0.09229375  1.0
  Ni  Ni102  1  0.43859800  0.19267800  0.09229375  1.0
  Ni  Ni103  1  0.43859800  0.52601133  0.09229375  1.0
  Ni  Ni104  1  0.43859800  0.85934467  0.09229375  1.0
  Ni  Ni105  1  0.77193133  0.19267800  0.09229375  1.0
  Ni  Ni106  1  0.77193133  0.52601133  0.09229375  1.0
  Ni  Ni107  1  0.77193133  0.85934467  0.09229375  1.0
  Ni  Ni108  1  0.32758367  0.19267800  0.05055450  1.0
  Ni  Ni109  1  0.32758367  0.52601133  0.05055450  1.0
  Ni  Ni110  1  0.32758367  0.85934467  0.05055450  1.0
  Ni  Ni111  1  0.66091700  0.19267800  0.05055450  1.0
  Ni  Ni112  1  0.66091700  0.52601133  0.05055450  1.0
  Ni  Ni113  1  0.66091700  0.85934467  0.05055450  1.0
  Ni  Ni114  1  0.99425033  0.19267800  0.05055450  1.0
  Ni  Ni115  1  0.99425033  0.52601133  0.05055450  1.0
  Ni  Ni116  1  0.99425033  0.85934467  0.05055450  1.0
  Ni  Ni117  1  0.25394467  0.24986500  0.05181438  1.0
  Ni  Ni118  1  0.25394467  0.58319833  0.05181437  1.0
  Ni  Ni119  1  0.25394467  0.91653167  0.05181437  1.0
  Ni  Ni120  1  0.58727800  0.24986500  0.05181437  1.0
  Ni  Ni121  1  0.58727800  0.58319833  0.05181437  1.0
  Ni  Ni122  1  0.58727800  0.91653167  0.05181437  1.0
  Ni  Ni123  1  0.92061133  0.24986500  0.05181437  1.0
  Ni  Ni124  1  0.92061133  0.58319833  0.05181437  1.0
  Ni  Ni125  1  0.92061133  0.91653167  0.05181438  1.0
  Ni  Ni126  1  0.08825667  0.25006800  0.11501087  1.0
  Ni  Ni127  1  0.08825667  0.58340133  0.11501088  1.0
  Ni  Ni128  1  0.08825667  0.91673467  0.11501088  1.0
  Ni  Ni129  1  0.42159000  0.25006800  0.11501087  1.0
  Ni  Ni130  1  0.42159000  0.58340133  0.11501087  1.0
  Ni  Ni131  1  0.42159000  0.91673467  0.11501088  1.0
  Ni  Ni132  1  0.75492333  0.25006800  0.11501087  1.0
  Ni  Ni133  1  0.75492333  0.58340133  0.11501087  1.0
  Ni  Ni134  1  0.75492333  0.91673467  0.11501087  1.0
  Ni  Ni135  1  0.25637467  0.25006800  0.11392238  1.0
  Ni  Ni136  1  0.25637467  0.58340133  0.11392238  1.0
  Ni  Ni137  1  0.25637467  0.91673467  0.11392238  1.0
  Ni  Ni138  1  0.58970800  0.25006800  0.11392237  1.0
  Ni  Ni139  1  0.58970800  0.58340133  0.11392237  1.0
  Ni  Ni140  1  0.58970800  0.91673467  0.11392238  1.0
  Ni  Ni141  1  0.92304133  0.25006800  0.11392237  1.0
  Ni  Ni142  1  0.92304133  0.58340133  0.11392237  1.0
  Ni  Ni143  1  0.92304133  0.91673467  0.11392237  1.0
  Ni  Ni144  1  0.06947033  0.30731633  0.01107763  1.0
  Ni  Ni145  1  0.06947033  0.64064967  0.01107763  1.0
  Ni  Ni146  1  0.06947033  0.97398300  0.01107763  1.0
  Ni  Ni147  1  0.40280367  0.30731633  0.01107763  1.0
  Ni  Ni148  1  0.40280367  0.64064967  0.01107763  1.0
  Ni  Ni149  1  0.40280367  0.97398300  0.01107763  1.0
  Ni  Ni150  1  0.73613700  0.30731633  0.01107763  1.0
  Ni  Ni151  1  0.73613700  0.64064967  0.01107763  1.0
  Ni  Ni152  1  0.73613700  0.97398300  0.01107762  1.0
  Ni  Ni153  1  0.17926967  0.30731633  0.05372813  1.0
  Ni  Ni154  1  0.17926967  0.64064967  0.05372813  1.0
  Ni  Ni155  1  0.17926967  0.97398300  0.05372813  1.0
  Ni  Ni156  1  0.51260300  0.30731633  0.05372813  1.0
  Ni  Ni157  1  0.51260300  0.64064967  0.05372813  1.0
  Ni  Ni158  1  0.51260300  0.97398300  0.05372813  1.0
  Ni  Ni159  1  0.84593633  0.30731633  0.05372813  1.0
  Ni  Ni160  1  0.84593633  0.64064967  0.05372813  1.0
  Ni  Ni161  1  0.84593633  0.97398300  0.05372813  1.0
  Zr  Zr162  1  0.01334567  0.03785233  0.14280488  1.0
  Zr  Zr163  1  0.01334567  0.37118567  0.14280488  1.0
  Zr  Zr164  1  0.01334567  0.70451900  0.14280488  1.0
  Zr  Zr165  1  0.34667900  0.03785233  0.14280487  1.0
  Zr  Zr166  1  0.34667900  0.37118567  0.14280488  1.0
  Zr  Zr167  1  0.34667900  0.70451900  0.14280488  1.0
  Zr  Zr168  1  0.68001233  0.03785233  0.14280487  1.0
  Zr  Zr169  1  0.68001233  0.37118567  0.14280488  1.0
  Zr  Zr170  1  0.68001233  0.70451900  0.14280488  1.0
  Zr  Zr171  1  0.14622467  0.12842467  0.21073412  1.0
  Zr  Zr172  1  0.14622467  0.46175800  0.21073412  1.0
  Zr  Zr173  1  0.14622467  0.79509133  0.21073412  1.0
  Zr  Zr174  1  0.47955800  0.12842467  0.21073412  1.0
  Zr  Zr175  1  0.47955800  0.46175800  0.21073413  1.0
  Zr  Zr176  1  0.47955800  0.79509133  0.21073413  1.0
  Zr  Zr177  1  0.81289133  0.12842467  0.21073412  1.0
  Zr  Zr178  1  0.81289133  0.46175800  0.21073412  1.0
  Zr  Zr179  1  0.81289133  0.79509133  0.21073412  1.0
  Zr  Zr180  1  0.18710867  0.20490867  0.14309713  1.0
  Zr  Zr181  1  0.18710867  0.53824200  0.14309713  1.0
  Zr  Zr182  1  0.18710867  0.87157533  0.14309713  1.0
  Zr  Zr183  1  0.52044200  0.20490867  0.14309713  1.0
  Zr  Zr184  1  0.52044200  0.53824200  0.14309713  1.0
  Zr  Zr185  1  0.52044200  0.87157533  0.14309713  1.0
  Zr  Zr186  1  0.85377533  0.20490867  0.14309713  1.0
  Zr  Zr187  1  0.85377533  0.53824200  0.14309713  1.0
  Zr  Zr188  1  0.85377533  0.87157533  0.14309713  1.0
  Zr  Zr189  1  0.31998767  0.29548100  0.21102638  1.0
  Zr  Zr190  1  0.31998767  0.62881433  0.21102637  1.0
  Zr  Zr191  1  0.31998767  0.96214767  0.21102638  1.0
  Zr  Zr192  1  0.65332100  0.29548100  0.21102638  1.0
  Zr  Zr193  1  0.65332100  0.62881433  0.21102637  1.0
  Zr  Zr194  1  0.65332100  0.96214767  0.21102638  1.0
  Zr  Zr195  1  0.98665433  0.29548100  0.21102638  1.0
  Zr  Zr196  1  0.98665433  0.62881433  0.21102637  1.0
  Zr  Zr197  1  0.98665433  0.96214767  0.21102638  1.0
  Ni  Ni198  1  0.26386300  0.02601700  0.21775363  1.0
  Ni  Ni199  1  0.26386300  0.35935033  0.21775363  1.0
  Ni  Ni200  1  0.26386300  0.69268367  0.21775362  1.0
  Ni  Ni201  1  0.59719633  0.02601700  0.21775362  1.0
  Ni  Ni202  1  0.59719633  0.35935033  0.21775362  1.0
  Ni  Ni203  1  0.59719633  0.69268367  0.21775362  1.0
  Ni  Ni204  1  0.93052967  0.02601700  0.21775362  1.0
  Ni  Ni205  1  0.93052967  0.35935033  0.21775362  1.0
  Ni  Ni206  1  0.93052967  0.69268367  0.21775362  1.0
  Ni  Ni207  1  0.15406367  0.02601700  0.17510313  1.0
  Ni  Ni208  1  0.15406367  0.35935033  0.17510312  1.0
  Ni  Ni209  1  0.15406367  0.69268367  0.17510312  1.0
  Ni  Ni210  1  0.48739700  0.02601700  0.17510312  1.0
  Ni  Ni211  1  0.48739700  0.35935033  0.17510312  1.0
  Ni  Ni212  1  0.48739700  0.69268367  0.17510313  1.0
  Ni  Ni213  1  0.82073033  0.02601700  0.17510312  1.0
  Ni  Ni214  1  0.82073033  0.35935033  0.17510312  1.0
  Ni  Ni215  1  0.82073033  0.69268367  0.17510312  1.0
  Ni  Ni216  1  0.24507667  0.08326533  0.23882038  1.0
  Ni  Ni217  1  0.24507667  0.41659867  0.23882038  1.0
  Ni  Ni218  1  0.24507667  0.74993200  0.23882038  1.0
  Ni  Ni219  1  0.57841000  0.08326533  0.23882038  1.0
  Ni  Ni220  1  0.57841000  0.41659867  0.23882038  1.0
  Ni  Ni221  1  0.57841000  0.74993200  0.23882038  1.0
  Ni  Ni222  1  0.91174333  0.08326533  0.23882038  1.0
  Ni  Ni223  1  0.91174333  0.41659867  0.23882038  1.0
  Ni  Ni224  1  0.91174333  0.74993200  0.23882038  1.0
  Ni  Ni225  1  0.07695867  0.08326533  0.23990888  1.0
  Ni  Ni226  1  0.07695867  0.41659867  0.23990887  1.0
  Ni  Ni227  1  0.07695867  0.74993200  0.23990887  1.0
  Ni  Ni228  1  0.41029200  0.08326533  0.23990887  1.0
  Ni  Ni229  1  0.41029200  0.41659867  0.23990887  1.0
  Ni  Ni230  1  0.41029200  0.74993200  0.23990887  1.0
  Ni  Ni231  1  0.74362533  0.08326533  0.23990887  1.0
  Ni  Ni232  1  0.74362533  0.41659867  0.23990887  1.0
  Ni  Ni233  1  0.74362533  0.74993200  0.23990887  1.0
  Ni  Ni234  1  0.07938867  0.08346833  0.17701687  1.0
  Ni  Ni235  1  0.07938867  0.41680167  0.17701687  1.0
  Ni  Ni236  1  0.07938867  0.75013500  0.17701688  1.0
  Ni  Ni237  1  0.41272200  0.08346833  0.17701688  1.0
  Ni  Ni238  1  0.41272200  0.41680167  0.17701688  1.0
  Ni  Ni239  1  0.41272200  0.75013500  0.17701688  1.0
  Ni  Ni240  1  0.74605533  0.08346833  0.17701688  1.0
  Ni  Ni241  1  0.74605533  0.41680167  0.17701688  1.0
  Ni  Ni242  1  0.74605533  0.75013500  0.17701688  1.0
  Ni  Ni243  1  0.22806867  0.14065533  0.13653750  1.0
  Ni  Ni244  1  0.22806867  0.47398867  0.13653750  1.0
  Ni  Ni245  1  0.22806867  0.80732200  0.13653750  1.0
  Ni  Ni246  1  0.56140200  0.14065533  0.13653750  1.0
  Ni  Ni247  1  0.56140200  0.47398867  0.13653750  1.0
  Ni  Ni248  1  0.56140200  0.80732200  0.13653750  1.0
  Ni  Ni249  1  0.89473533  0.14065533  0.13653750  1.0
  Ni  Ni250  1  0.89473533  0.47398867  0.13653750  1.0
  Ni  Ni251  1  0.89473533  0.80732200  0.13653750  1.0
  Ni  Ni252  1  0.00574967  0.14065533  0.17827675  1.0
  Ni  Ni253  1  0.00574967  0.47398867  0.17827675  1.0
  Ni  Ni254  1  0.00574967  0.80732200  0.17827675  1.0
  Ni  Ni255  1  0.33908300  0.14065533  0.17827675  1.0
  Ni  Ni256  1  0.33908300  0.47398867  0.17827675  1.0
  Ni  Ni257  1  0.33908300  0.80732200  0.17827675  1.0
  Ni  Ni258  1  0.67241633  0.14065533  0.17827675  1.0
  Ni  Ni259  1  0.67241633  0.47398867  0.17827675  1.0
  Ni  Ni260  1  0.67241633  0.80732200  0.17827675  1.0
  Ni  Ni261  1  0.10526467  0.19267800  0.21729375  1.0
  Ni  Ni262  1  0.10526467  0.52601133  0.21729375  1.0
  Ni  Ni263  1  0.10526467  0.85934467  0.21729375  1.0
  Ni  Ni264  1  0.43859800  0.19267800  0.21729375  1.0
  Ni  Ni265  1  0.43859800  0.52601133  0.21729375  1.0
  Ni  Ni266  1  0.43859800  0.85934467  0.21729375  1.0
  Ni  Ni267  1  0.77193133  0.19267800  0.21729375  1.0
  Ni  Ni268  1  0.77193133  0.52601133  0.21729375  1.0
  Ni  Ni269  1  0.77193133  0.85934467  0.21729375  1.0
  Ni  Ni270  1  0.32758367  0.19267800  0.17555450  1.0
  Ni  Ni271  1  0.32758367  0.52601133  0.17555450  1.0
  Ni  Ni272  1  0.32758367  0.85934467  0.17555450  1.0
  Ni  Ni273  1  0.66091700  0.19267800  0.17555450  1.0
  Ni  Ni274  1  0.66091700  0.52601133  0.17555450  1.0
  Ni  Ni275  1  0.66091700  0.85934467  0.17555450  1.0
  Ni  Ni276  1  0.99425033  0.19267800  0.17555450  1.0
  Ni  Ni277  1  0.99425033  0.52601133  0.17555450  1.0
  Ni  Ni278  1  0.99425033  0.85934467  0.17555450  1.0
  Ni  Ni279  1  0.25394467  0.24986500  0.17681438  1.0
  Ni  Ni280  1  0.25394467  0.58319833  0.17681437  1.0
  Ni  Ni281  1  0.25394467  0.91653167  0.17681437  1.0
  Ni  Ni282  1  0.58727800  0.24986500  0.17681437  1.0
  Ni  Ni283  1  0.58727800  0.58319833  0.17681437  1.0
  Ni  Ni284  1  0.58727800  0.91653167  0.17681437  1.0
  Ni  Ni285  1  0.92061133  0.24986500  0.17681437  1.0
  Ni  Ni286  1  0.92061133  0.58319833  0.17681437  1.0
  Ni  Ni287  1  0.92061133  0.91653167  0.17681438  1.0
  Ni  Ni288  1  0.08825667  0.25006800  0.24001088  1.0
  Ni  Ni289  1  0.08825667  0.58340133  0.24001088  1.0
  Ni  Ni290  1  0.08825667  0.91673467  0.24001088  1.0
  Ni  Ni291  1  0.42159000  0.25006800  0.24001087  1.0
  Ni  Ni292  1  0.42159000  0.58340133  0.24001088  1.0
  Ni  Ni293  1  0.42159000  0.91673467  0.24001088  1.0
  Ni  Ni294  1  0.75492333  0.25006800  0.24001087  1.0
  Ni  Ni295  1  0.75492333  0.58340133  0.24001087  1.0
  Ni  Ni296  1  0.75492333  0.91673467  0.24001087  1.0
  Ni  Ni297  1  0.25637467  0.25006800  0.23892238  1.0
  Ni  Ni298  1  0.25637467  0.58340133  0.23892238  1.0
  Ni  Ni299  1  0.25637467  0.91673467  0.23892238  1.0
  Ni  Ni300  1  0.58970800  0.25006800  0.23892237  1.0
  Ni  Ni301  1  0.58970800  0.58340133  0.23892237  1.0
  Ni  Ni302  1  0.58970800  0.91673467  0.23892238  1.0
  Ni  Ni303  1  0.92304133  0.25006800  0.23892237  1.0
  Ni  Ni304  1  0.92304133  0.58340133  0.23892237  1.0
  Ni  Ni305  1  0.92304133  0.91673467  0.23892237  1.0
  Ni  Ni306  1  0.06947033  0.30731633  0.13607763  1.0
  Ni  Ni307  1  0.06947033  0.64064967  0.13607762  1.0
  Ni  Ni308  1  0.06947033  0.97398300  0.13607763  1.0
  Ni  Ni309  1  0.40280367  0.30731633  0.13607763  1.0
  Ni  Ni310  1  0.40280367  0.64064967  0.13607763  1.0
  Ni  Ni311  1  0.40280367  0.97398300  0.13607763  1.0
  Ni  Ni312  1  0.73613700  0.30731633  0.13607763  1.0
  Ni  Ni313  1  0.73613700  0.64064967  0.13607763  1.0
  Ni  Ni314  1  0.73613700  0.97398300  0.13607762  1.0
  Ni  Ni315  1  0.17926967  0.30731633  0.17872813  1.0
  Ni  Ni316  1  0.17926967  0.64064967  0.17872813  1.0
  Ni  Ni317  1  0.17926967  0.97398300  0.17872813  1.0
  Ni  Ni318  1  0.51260300  0.30731633  0.17872813  1.0
  Ni  Ni319  1  0.51260300  0.64064967  0.17872813  1.0
  Ni  Ni320  1  0.51260300  0.97398300  0.17872813  1.0
  Ni  Ni321  1  0.84593633  0.30731633  0.17872813  1.0
  Ni  Ni322  1  0.84593633  0.64064967  0.17872813  1.0
  Ni  Ni323  1  0.84593633  0.97398300  0.17872813  1.0
  Zr  Zr324  1  0.01334567  0.03785233  0.26780488  1.0
  Zr  Zr325  1  0.01334567  0.37118567  0.26780488  1.0
  Zr  Zr326  1  0.01334567  0.70451900  0.26780488  1.0
  Zr  Zr327  1  0.34667900  0.03785233  0.26780488  1.0
  Zr  Zr328  1  0.34667900  0.37118567  0.26780488  1.0
  Zr  Zr329  1  0.34667900  0.70451900  0.26780488  1.0
  Zr  Zr330  1  0.68001233  0.03785233  0.26780488  1.0
  Zr  Zr331  1  0.68001233  0.37118567  0.26780488  1.0
  Zr  Zr332  1  0.68001233  0.70451900  0.26780488  1.0
  Zr  Zr333  1  0.14622467  0.12842467  0.33573412  1.0
  Zr  Zr334  1  0.14622467  0.46175800  0.33573412  1.0
  Zr  Zr335  1  0.14622467  0.79509133  0.33573412  1.0
  Zr  Zr336  1  0.47955800  0.12842467  0.33573412  1.0
  Zr  Zr337  1  0.47955800  0.46175800  0.33573413  1.0
  Zr  Zr338  1  0.47955800  0.79509133  0.33573412  1.0
  Zr  Zr339  1  0.81289133  0.12842467  0.33573412  1.0
  Zr  Zr340  1  0.81289133  0.46175800  0.33573412  1.0
  Zr  Zr341  1  0.81289133  0.79509133  0.33573412  1.0
  Zr  Zr342  1  0.18710867  0.20490867  0.26809713  1.0
  Zr  Zr343  1  0.18710867  0.53824200  0.26809713  1.0
  Zr  Zr344  1  0.18710867  0.87157533  0.26809713  1.0
  Zr  Zr345  1  0.52044200  0.20490867  0.26809713  1.0
  Zr  Zr346  1  0.52044200  0.53824200  0.26809713  1.0
  Zr  Zr347  1  0.52044200  0.87157533  0.26809713  1.0
  Zr  Zr348  1  0.85377533  0.20490867  0.26809713  1.0
  Zr  Zr349  1  0.85377533  0.53824200  0.26809713  1.0
  Zr  Zr350  1  0.85377533  0.87157533  0.26809713  1.0
  Zr  Zr351  1  0.31998767  0.29548100  0.33602637  1.0
  Zr  Zr352  1  0.31998767  0.62881433  0.33602637  1.0
  Zr  Zr353  1  0.31998767  0.96214767  0.33602637  1.0
  Zr  Zr354  1  0.65332100  0.29548100  0.33602637  1.0
  Zr  Zr355  1  0.65332100  0.62881433  0.33602637  1.0
  Zr  Zr356  1  0.65332100  0.96214767  0.33602637  1.0
  Zr  Zr357  1  0.98665433  0.29548100  0.33602637  1.0
  Zr  Zr358  1  0.98665433  0.62881433  0.33602637  1.0
  Zr  Zr359  1  0.98665433  0.96214767  0.33602638  1.0
  Ni  Ni360  1  0.26386300  0.02601700  0.34275363  1.0
  Ni  Ni361  1  0.26386300  0.35935033  0.34275363  1.0
  Ni  Ni362  1  0.26386300  0.69268367  0.34275363  1.0
  Ni  Ni363  1  0.59719633  0.02601700  0.34275363  1.0
  Ni  Ni364  1  0.59719633  0.35935033  0.34275363  1.0
  Ni  Ni365  1  0.59719633  0.69268367  0.34275363  1.0
  Ni  Ni366  1  0.93052967  0.02601700  0.34275363  1.0
  Ni  Ni367  1  0.93052967  0.35935033  0.34275363  1.0
  Ni  Ni368  1  0.93052967  0.69268367  0.34275363  1.0
  Ni  Ni369  1  0.15406367  0.02601700  0.30010313  1.0
  Ni  Ni370  1  0.15406367  0.35935033  0.30010312  1.0
  Ni  Ni371  1  0.15406367  0.69268367  0.30010312  1.0
  Ni  Ni372  1  0.48739700  0.02601700  0.30010312  1.0
  Ni  Ni373  1  0.48739700  0.35935033  0.30010313  1.0
  Ni  Ni374  1  0.48739700  0.69268367  0.30010313  1.0
  Ni  Ni375  1  0.82073033  0.02601700  0.30010312  1.0
  Ni  Ni376  1  0.82073033  0.35935033  0.30010313  1.0
  Ni  Ni377  1  0.82073033  0.69268367  0.30010313  1.0
  Ni  Ni378  1  0.24507667  0.08326533  0.36382038  1.0
  Ni  Ni379  1  0.24507667  0.41659867  0.36382038  1.0
  Ni  Ni380  1  0.24507667  0.74993200  0.36382038  1.0
  Ni  Ni381  1  0.57841000  0.08326533  0.36382038  1.0
  Ni  Ni382  1  0.57841000  0.41659867  0.36382038  1.0
  Ni  Ni383  1  0.57841000  0.74993200  0.36382038  1.0
  Ni  Ni384  1  0.91174333  0.08326533  0.36382038  1.0
  Ni  Ni385  1  0.91174333  0.41659867  0.36382038  1.0
  Ni  Ni386  1  0.91174333  0.74993200  0.36382038  1.0
  Ni  Ni387  1  0.07695867  0.08326533  0.36490888  1.0
  Ni  Ni388  1  0.07695867  0.41659867  0.36490888  1.0
  Ni  Ni389  1  0.07695867  0.74993200  0.36490887  1.0
  Ni  Ni390  1  0.41029200  0.08326533  0.36490887  1.0
  Ni  Ni391  1  0.41029200  0.41659867  0.36490888  1.0
  Ni  Ni392  1  0.41029200  0.74993200  0.36490888  1.0
  Ni  Ni393  1  0.74362533  0.08326533  0.36490887  1.0
  Ni  Ni394  1  0.74362533  0.41659867  0.36490887  1.0
  Ni  Ni395  1  0.74362533  0.74993200  0.36490887  1.0
  Ni  Ni396  1  0.07938867  0.08346833  0.30201687  1.0
  Ni  Ni397  1  0.07938867  0.41680167  0.30201687  1.0
  Ni  Ni398  1  0.07938867  0.75013500  0.30201688  1.0
  Ni  Ni399  1  0.41272200  0.08346833  0.30201687  1.0
  Ni  Ni400  1  0.41272200  0.41680167  0.30201687  1.0
  Ni  Ni401  1  0.41272200  0.75013500  0.30201688  1.0
  Ni  Ni402  1  0.74605533  0.08346833  0.30201687  1.0
  Ni  Ni403  1  0.74605533  0.41680167  0.30201687  1.0
  Ni  Ni404  1  0.74605533  0.75013500  0.30201687  1.0
  Ni  Ni405  1  0.22806867  0.14065533  0.26153750  1.0
  Ni  Ni406  1  0.22806867  0.47398867  0.26153750  1.0
  Ni  Ni407  1  0.22806867  0.80732200  0.26153750  1.0
  Ni  Ni408  1  0.56140200  0.14065533  0.26153750  1.0
  Ni  Ni409  1  0.56140200  0.47398867  0.26153750  1.0
  Ni  Ni410  1  0.56140200  0.80732200  0.26153750  1.0
  Ni  Ni411  1  0.89473533  0.14065533  0.26153750  1.0
  Ni  Ni412  1  0.89473533  0.47398867  0.26153750  1.0
  Ni  Ni413  1  0.89473533  0.80732200  0.26153750  1.0
  Ni  Ni414  1  0.00574967  0.14065533  0.30327675  1.0
  Ni  Ni415  1  0.00574967  0.47398867  0.30327675  1.0
  Ni  Ni416  1  0.00574967  0.80732200  0.30327675  1.0
  Ni  Ni417  1  0.33908300  0.14065533  0.30327675  1.0
  Ni  Ni418  1  0.33908300  0.47398867  0.30327675  1.0
  Ni  Ni419  1  0.33908300  0.80732200  0.30327675  1.0
  Ni  Ni420  1  0.67241633  0.14065533  0.30327675  1.0
  Ni  Ni421  1  0.67241633  0.47398867  0.30327675  1.0
  Ni  Ni422  1  0.67241633  0.80732200  0.30327675  1.0
  Ni  Ni423  1  0.10526467  0.19267800  0.34229375  1.0
  Ni  Ni424  1  0.10526467  0.52601133  0.34229375  1.0
  Ni  Ni425  1  0.10526467  0.85934467  0.34229375  1.0
  Ni  Ni426  1  0.43859800  0.19267800  0.34229375  1.0
  Ni  Ni427  1  0.43859800  0.52601133  0.34229375  1.0
  Ni  Ni428  1  0.43859800  0.85934467  0.34229375  1.0
  Ni  Ni429  1  0.77193133  0.19267800  0.34229375  1.0
  Ni  Ni430  1  0.77193133  0.52601133  0.34229375  1.0
  Ni  Ni431  1  0.77193133  0.85934467  0.34229375  1.0
  Ni  Ni432  1  0.32758367  0.19267800  0.30055450  1.0
  Ni  Ni433  1  0.32758367  0.52601133  0.30055450  1.0
  Ni  Ni434  1  0.32758367  0.85934467  0.30055450  1.0
  Ni  Ni435  1  0.66091700  0.19267800  0.30055450  1.0
  Ni  Ni436  1  0.66091700  0.52601133  0.30055450  1.0
  Ni  Ni437  1  0.66091700  0.85934467  0.30055450  1.0
  Ni  Ni438  1  0.99425033  0.19267800  0.30055450  1.0
  Ni  Ni439  1  0.99425033  0.52601133  0.30055450  1.0
  Ni  Ni440  1  0.99425033  0.85934467  0.30055450  1.0
  Ni  Ni441  1  0.25394467  0.24986500  0.30181438  1.0
  Ni  Ni442  1  0.25394467  0.58319833  0.30181437  1.0
  Ni  Ni443  1  0.25394467  0.91653167  0.30181437  1.0
  Ni  Ni444  1  0.58727800  0.24986500  0.30181438  1.0
  Ni  Ni445  1  0.58727800  0.58319833  0.30181437  1.0
  Ni  Ni446  1  0.58727800  0.91653167  0.30181437  1.0
  Ni  Ni447  1  0.92061133  0.24986500  0.30181437  1.0
  Ni  Ni448  1  0.92061133  0.58319833  0.30181437  1.0
  Ni  Ni449  1  0.92061133  0.91653167  0.30181438  1.0
  Ni  Ni450  1  0.08825667  0.25006800  0.36501087  1.0
  Ni  Ni451  1  0.08825667  0.58340133  0.36501087  1.0
  Ni  Ni452  1  0.08825667  0.91673467  0.36501087  1.0
  Ni  Ni453  1  0.42159000  0.25006800  0.36501087  1.0
  Ni  Ni454  1  0.42159000  0.58340133  0.36501087  1.0
  Ni  Ni455  1  0.42159000  0.91673467  0.36501087  1.0
  Ni  Ni456  1  0.75492333  0.25006800  0.36501087  1.0
  Ni  Ni457  1  0.75492333  0.58340133  0.36501087  1.0
  Ni  Ni458  1  0.75492333  0.91673467  0.36501087  1.0
  Ni  Ni459  1  0.25637467  0.25006800  0.36392238  1.0
  Ni  Ni460  1  0.25637467  0.58340133  0.36392238  1.0
  Ni  Ni461  1  0.25637467  0.91673467  0.36392238  1.0
  Ni  Ni462  1  0.58970800  0.25006800  0.36392238  1.0
  Ni  Ni463  1  0.58970800  0.58340133  0.36392237  1.0
  Ni  Ni464  1  0.58970800  0.91673467  0.36392238  1.0
  Ni  Ni465  1  0.92304133  0.25006800  0.36392237  1.0
  Ni  Ni466  1  0.92304133  0.58340133  0.36392237  1.0
  Ni  Ni467  1  0.92304133  0.91673467  0.36392237  1.0
  Ni  Ni468  1  0.06947033  0.30731633  0.26107763  1.0
  Ni  Ni469  1  0.06947033  0.64064967  0.26107762  1.0
  Ni  Ni470  1  0.06947033  0.97398300  0.26107763  1.0
  Ni  Ni471  1  0.40280367  0.30731633  0.26107762  1.0
  Ni  Ni472  1  0.40280367  0.64064967  0.26107762  1.0
  Ni  Ni473  1  0.40280367  0.97398300  0.26107763  1.0
  Ni  Ni474  1  0.73613700  0.30731633  0.26107763  1.0
  Ni  Ni475  1  0.73613700  0.64064967  0.26107763  1.0
  Ni  Ni476  1  0.73613700  0.97398300  0.26107762  1.0
  Ni  Ni477  1  0.17926967  0.30731633  0.30372813  1.0
  Ni  Ni478  1  0.17926967  0.64064967  0.30372813  1.0
  Ni  Ni479  1  0.17926967  0.97398300  0.30372813  1.0
  Ni  Ni480  1  0.51260300  0.30731633  0.30372812  1.0
  Ni  Ni481  1  0.51260300  0.64064967  0.30372813  1.0
  Ni  Ni482  1  0.51260300  0.97398300  0.30372813  1.0
  Ni  Ni483  1  0.84593633  0.30731633  0.30372813  1.0
  Ni  Ni484  1  0.84593633  0.64064967  0.30372812  1.0
  Ni  Ni485  1  0.84593633  0.97398300  0.30372813  1.0
