# generated using pymatgen
data_Zr2Ni7
_symmetry_space_group_name_H-M   'P 1'
_cell_length_a   24.69523201
_cell_length_b   36.20518264
_cell_length_c   56.60541018
_cell_angle_alpha   128.95080483
_cell_angle_beta   90.00000000
_cell_angle_gamma   46.99273596
_symmetry_Int_Tables_number   1
_chemical_formula_structural   Zr2Ni7
_chemical_formula_sum   'Zr144 Ni504'
_cell_volume   18906.12519395
_cell_formula_units_Z   72
loop_
 _symmetry_equiv_pos_site_id
 _symmetry_equiv_pos_as_xyz
  1  'x, y, z'
loop_
 _atom_site_type_symbol
 _atom_site_label
 _atom_site_symmetry_multiplicity
 _atom_site_fract_x
 _atom_site_fract_y
 _atom_site_fract_z
 _atom_site_occupancy
  Zr  Zr0  1  0.20236300  0.13097033  0.06062667  1.0
  Zr  Zr1  1  0.20236300  0.46430367  0.06062667  1.0
  Zr  Zr2  1  0.20236300  0.79763700  0.06062667  1.0
  Zr  Zr3  1  0.53569633  0.13097033  0.06062667  1.0
  Zr  Zr4  1  0.53569633  0.46430367  0.06062667  1.0
  Zr  Zr5  1  0.53569633  0.79763700  0.06062667  1.0
  Zr  Zr6  1  0.86902967  0.13097033  0.06062667  1.0
  Zr  Zr7  1  0.86902967  0.46430367  0.06062667  1.0
  Zr  Zr8  1  0.86902967  0.79763700  0.06062667  1.0
  Zr  Zr9  1  0.20236300  0.29763700  0.00507111  1.0
  Zr  Zr10  1  0.20236300  0.63097033  0.00507111  1.0
  Zr  Zr11  1  0.20236300  0.96430367  0.00507111  1.0
  Zr  Zr12  1  0.53569633  0.29763700  0.00507111  1.0
  Zr  Zr13  1  0.53569633  0.63097033  0.00507111  1.0
  Zr  Zr14  1  0.53569633  0.96430367  0.00507111  1.0
  Zr  Zr15  1  0.86902967  0.29763700  0.00507111  1.0
  Zr  Zr16  1  0.86902967  0.63097033  0.00507111  1.0
  Zr  Zr17  1  0.86902967  0.96430367  0.00507111  1.0
  Zr  Zr18  1  0.13097033  0.20236300  0.03369244  1.0
  Zr  Zr19  1  0.13097033  0.53569633  0.03369244  1.0
  Zr  Zr20  1  0.13097033  0.86902967  0.03369244  1.0
  Zr  Zr21  1  0.46430367  0.20236300  0.03369244  1.0
  Zr  Zr22  1  0.46430367  0.53569633  0.03369244  1.0
  Zr  Zr23  1  0.46430367  0.86902967  0.03369244  1.0
  Zr  Zr24  1  0.79763700  0.20236300  0.03369244  1.0
  Zr  Zr25  1  0.79763700  0.53569633  0.03369244  1.0
  Zr  Zr26  1  0.79763700  0.86902967  0.03369244  1.0
  Zr  Zr27  1  0.13097033  0.03569633  0.08924800  1.0
  Zr  Zr28  1  0.13097033  0.36902967  0.08924800  1.0
  Zr  Zr29  1  0.13097033  0.70236300  0.08924800  1.0
  Zr  Zr30  1  0.46430367  0.03569633  0.08924800  1.0
  Zr  Zr31  1  0.46430367  0.36902967  0.08924800  1.0
  Zr  Zr32  1  0.46430367  0.70236300  0.08924800  1.0
  Zr  Zr33  1  0.79763700  0.03569633  0.08924800  1.0
  Zr  Zr34  1  0.79763700  0.36902967  0.08924800  1.0
  Zr  Zr35  1  0.79763700  0.70236300  0.08924800  1.0
  Ni  Ni36  1  0.00000000  0.16666667  0.10271511  1.0
  Ni  Ni37  1  0.00000000  0.50000000  0.10271511  1.0
  Ni  Ni38  1  0.00000000  0.83333333  0.10271511  1.0
  Ni  Ni39  1  0.33333333  0.16666667  0.10271511  1.0
  Ni  Ni40  1  0.33333333  0.50000000  0.10271511  1.0
  Ni  Ni41  1  0.33333333  0.83333333  0.10271511  1.0
  Ni  Ni42  1  0.66666667  0.16666667  0.10271511  1.0
  Ni  Ni43  1  0.66666667  0.50000000  0.10271511  1.0
  Ni  Ni44  1  0.66666667  0.83333333  0.10271511  1.0
  Ni  Ni45  1  0.00000000  0.00000000  0.04715956  1.0
  Ni  Ni46  1  0.00000000  0.33333333  0.04715956  1.0
  Ni  Ni47  1  0.00000000  0.66666667  0.04715956  1.0
  Ni  Ni48  1  0.33333333  0.00000000  0.04715956  1.0
  Ni  Ni49  1  0.33333333  0.33333333  0.04715956  1.0
  Ni  Ni50  1  0.33333333  0.66666667  0.04715956  1.0
  Ni  Ni51  1  0.66666667  0.00000000  0.04715956  1.0
  Ni  Ni52  1  0.66666667  0.33333333  0.04715956  1.0
  Ni  Ni53  1  0.66666667  0.66666667  0.04715956  1.0
  Ni  Ni54  1  0.09744833  0.12450500  0.05048444  1.0
  Ni  Ni55  1  0.09744833  0.45783833  0.05048444  1.0
  Ni  Ni56  1  0.09744833  0.79117167  0.05048444  1.0
  Ni  Ni57  1  0.43078167  0.12450500  0.05048444  1.0
  Ni  Ni58  1  0.43078167  0.45783833  0.05048444  1.0
  Ni  Ni59  1  0.43078167  0.79117167  0.05048444  1.0
  Ni  Ni60  1  0.76411500  0.12450500  0.05048444  1.0
  Ni  Ni61  1  0.76411500  0.45783833  0.05048444  1.0
  Ni  Ni62  1  0.76411500  0.79117167  0.05048444  1.0
  Ni  Ni63  1  0.09744833  0.29117167  0.10604000  1.0
  Ni  Ni64  1  0.09744833  0.62450500  0.10604000  1.0
  Ni  Ni65  1  0.09744833  0.95783833  0.10604000  1.0
  Ni  Ni66  1  0.43078167  0.29117167  0.10604000  1.0
  Ni  Ni67  1  0.43078167  0.62450500  0.10604000  1.0
  Ni  Ni68  1  0.43078167  0.95783833  0.10604000  1.0
  Ni  Ni69  1  0.76411500  0.29117167  0.10604000  1.0
  Ni  Ni70  1  0.76411500  0.62450500  0.10604000  1.0
  Ni  Ni71  1  0.76411500  0.95783833  0.10604000  1.0
  Ni  Ni72  1  0.01312500  0.20882833  0.04383467  1.0
  Ni  Ni73  1  0.01312500  0.54216167  0.04383467  1.0
  Ni  Ni74  1  0.01312500  0.87549500  0.04383467  1.0
  Ni  Ni75  1  0.34645833  0.20882833  0.04383467  1.0
  Ni  Ni76  1  0.34645833  0.54216167  0.04383467  1.0
  Ni  Ni77  1  0.34645833  0.87549500  0.04383467  1.0
  Ni  Ni78  1  0.67979167  0.20882833  0.04383467  1.0
  Ni  Ni79  1  0.67979167  0.54216167  0.04383467  1.0
  Ni  Ni80  1  0.67979167  0.87549500  0.04383467  1.0
  Ni  Ni81  1  0.01312500  0.04216167  0.09939022  1.0
  Ni  Ni82  1  0.01312500  0.37549500  0.09939022  1.0
  Ni  Ni83  1  0.01312500  0.70882833  0.09939022  1.0
  Ni  Ni84  1  0.34645833  0.04216167  0.09939022  1.0
  Ni  Ni85  1  0.34645833  0.37549500  0.09939022  1.0
  Ni  Ni86  1  0.34645833  0.70882833  0.09939022  1.0
  Ni  Ni87  1  0.67979167  0.04216167  0.09939022  1.0
  Ni  Ni88  1  0.67979167  0.37549500  0.09939022  1.0
  Ni  Ni89  1  0.67979167  0.70882833  0.09939022  1.0
  Ni  Ni90  1  0.23588500  0.20882833  0.04383467  1.0
  Ni  Ni91  1  0.23588500  0.54216167  0.04383467  1.0
  Ni  Ni92  1  0.23588500  0.87549500  0.04383467  1.0
  Ni  Ni93  1  0.56921833  0.20882833  0.04383467  1.0
  Ni  Ni94  1  0.56921833  0.54216167  0.04383467  1.0
  Ni  Ni95  1  0.56921833  0.87549500  0.04383467  1.0
  Ni  Ni96  1  0.90255167  0.20882833  0.04383467  1.0
  Ni  Ni97  1  0.90255167  0.54216167  0.04383467  1.0
  Ni  Ni98  1  0.90255167  0.87549500  0.04383467  1.0
  Ni  Ni99  1  0.23588500  0.04216167  0.09939022  1.0
  Ni  Ni100  1  0.23588500  0.37549500  0.09939022  1.0
  Ni  Ni101  1  0.23588500  0.70882833  0.09939022  1.0
  Ni  Ni102  1  0.56921833  0.04216167  0.09939022  1.0
  Ni  Ni103  1  0.56921833  0.37549500  0.09939022  1.0
  Ni  Ni104  1  0.56921833  0.70882833  0.09939022  1.0
  Ni  Ni105  1  0.90255167  0.04216167  0.09939022  1.0
  Ni  Ni106  1  0.90255167  0.37549500  0.09939022  1.0
  Ni  Ni107  1  0.90255167  0.70882833  0.09939022  1.0
  Ni  Ni108  1  0.32020833  0.12450500  0.05048444  1.0
  Ni  Ni109  1  0.32020833  0.45783833  0.05048444  1.0
  Ni  Ni110  1  0.32020833  0.79117167  0.05048444  1.0
  Ni  Ni111  1  0.65354167  0.12450500  0.05048444  1.0
  Ni  Ni112  1  0.65354167  0.45783833  0.05048444  1.0
  Ni  Ni113  1  0.65354167  0.79117167  0.05048444  1.0
  Ni  Ni114  1  0.98687500  0.12450500  0.05048444  1.0
  Ni  Ni115  1  0.98687500  0.45783833  0.05048444  1.0
  Ni  Ni116  1  0.98687500  0.79117167  0.05048444  1.0
  Ni  Ni117  1  0.32020833  0.29117167  0.10604000  1.0
  Ni  Ni118  1  0.32020833  0.62450500  0.10604000  1.0
  Ni  Ni119  1  0.32020833  0.95783833  0.10604000  1.0
  Ni  Ni120  1  0.65354167  0.29117167  0.10604000  1.0
  Ni  Ni121  1  0.65354167  0.62450500  0.10604000  1.0
  Ni  Ni122  1  0.65354167  0.95783833  0.10604000  1.0
  Ni  Ni123  1  0.98687500  0.29117167  0.10604000  1.0
  Ni  Ni124  1  0.98687500  0.62450500  0.10604000  1.0
  Ni  Ni125  1  0.98687500  0.95783833  0.10604000  1.0
  Ni  Ni126  1  0.16666667  0.25000000  0.01938178  1.0
  Ni  Ni127  1  0.16666667  0.58333333  0.01938178  1.0
  Ni  Ni128  1  0.16666667  0.91666667  0.01938178  1.0
  Ni  Ni129  1  0.50000000  0.25000000  0.01938178  1.0
  Ni  Ni130  1  0.50000000  0.58333333  0.01938178  1.0
  Ni  Ni131  1  0.50000000  0.91666667  0.01938178  1.0
  Ni  Ni132  1  0.83333333  0.25000000  0.01938178  1.0
  Ni  Ni133  1  0.83333333  0.58333333  0.01938178  1.0
  Ni  Ni134  1  0.83333333  0.91666667  0.01938178  1.0
  Ni  Ni135  1  0.16666667  0.08333333  0.07493733  1.0
  Ni  Ni136  1  0.16666667  0.41666667  0.07493733  1.0
  Ni  Ni137  1  0.16666667  0.75000000  0.07493733  1.0
  Ni  Ni138  1  0.50000000  0.08333333  0.07493733  1.0
  Ni  Ni139  1  0.50000000  0.41666667  0.07493733  1.0
  Ni  Ni140  1  0.50000000  0.75000000  0.07493733  1.0
  Ni  Ni141  1  0.83333333  0.08333333  0.07493733  1.0
  Ni  Ni142  1  0.83333333  0.41666667  0.07493733  1.0
  Ni  Ni143  1  0.83333333  0.75000000  0.07493733  1.0
  Ni  Ni144  1  0.00000000  0.08333333  0.07493733  1.0
  Ni  Ni145  1  0.00000000  0.41666667  0.07493733  1.0
  Ni  Ni146  1  0.00000000  0.75000000  0.07493733  1.0
  Ni  Ni147  1  0.33333333  0.08333333  0.07493733  1.0
  Ni  Ni148  1  0.33333333  0.41666667  0.07493733  1.0
  Ni  Ni149  1  0.33333333  0.75000000  0.07493733  1.0
  Ni  Ni150  1  0.66666667  0.08333333  0.07493733  1.0
  Ni  Ni151  1  0.66666667  0.41666667  0.07493733  1.0
  Ni  Ni152  1  0.66666667  0.75000000  0.07493733  1.0
  Ni  Ni153  1  0.00000000  0.25000000  0.01938178  1.0
  Ni  Ni154  1  0.00000000  0.58333333  0.01938178  1.0
  Ni  Ni155  1  0.00000000  0.91666667  0.01938178  1.0
  Ni  Ni156  1  0.33333333  0.25000000  0.01938178  1.0
  Ni  Ni157  1  0.33333333  0.58333333  0.01938178  1.0
  Ni  Ni158  1  0.33333333  0.91666667  0.01938178  1.0
  Ni  Ni159  1  0.66666667  0.25000000  0.01938178  1.0
  Ni  Ni160  1  0.66666667  0.58333333  0.01938178  1.0
  Ni  Ni161  1  0.66666667  0.91666667  0.01938178  1.0
  Zr  Zr162  1  0.20236300  0.13097033  0.17173778  1.0
  Zr  Zr163  1  0.20236300  0.46430367  0.17173778  1.0
  Zr  Zr164  1  0.20236300  0.79763700  0.17173778  1.0
  Zr  Zr165  1  0.53569633  0.13097033  0.17173778  1.0
  Zr  Zr166  1  0.53569633  0.46430367  0.17173778  1.0
  Zr  Zr167  1  0.53569633  0.79763700  0.17173778  1.0
  Zr  Zr168  1  0.86902967  0.13097033  0.17173778  1.0
  Zr  Zr169  1  0.86902967  0.46430367  0.17173778  1.0
  Zr  Zr170  1  0.86902967  0.79763700  0.17173778  1.0
  Zr  Zr171  1  0.20236300  0.29763700  0.11618222  1.0
  Zr  Zr172  1  0.20236300  0.63097033  0.11618222  1.0
  Zr  Zr173  1  0.20236300  0.96430367  0.11618222  1.0
  Zr  Zr174  1  0.53569633  0.29763700  0.11618222  1.0
  Zr  Zr175  1  0.53569633  0.63097033  0.11618222  1.0
  Zr  Zr176  1  0.53569633  0.96430367  0.11618222  1.0
  Zr  Zr177  1  0.86902967  0.29763700  0.11618222  1.0
  Zr  Zr178  1  0.86902967  0.63097033  0.11618222  1.0
  Zr  Zr179  1  0.86902967  0.96430367  0.11618222  1.0
  Zr  Zr180  1  0.13097033  0.20236300  0.14480356  1.0
  Zr  Zr181  1  0.13097033  0.53569633  0.14480356  1.0
  Zr  Zr182  1  0.13097033  0.86902967  0.14480356  1.0
  Zr  Zr183  1  0.46430367  0.20236300  0.14480356  1.0
  Zr  Zr184  1  0.46430367  0.53569633  0.14480356  1.0
  Zr  Zr185  1  0.46430367  0.86902967  0.14480356  1.0
  Zr  Zr186  1  0.79763700  0.20236300  0.14480356  1.0
  Zr  Zr187  1  0.79763700  0.53569633  0.14480356  1.0
  Zr  Zr188  1  0.79763700  0.86902967  0.14480356  1.0
  Zr  Zr189  1  0.13097033  0.03569633  0.20035911  1.0
  Zr  Zr190  1  0.13097033  0.36902967  0.20035911  1.0
  Zr  Zr191  1  0.13097033  0.70236300  0.20035911  1.0
  Zr  Zr192  1  0.46430367  0.03569633  0.20035911  1.0
  Zr  Zr193  1  0.46430367  0.36902967  0.20035911  1.0
  Zr  Zr194  1  0.46430367  0.70236300  0.20035911  1.0
  Zr  Zr195  1  0.79763700  0.03569633  0.20035911  1.0
  Zr  Zr196  1  0.79763700  0.36902967  0.20035911  1.0
  Zr  Zr197  1  0.79763700  0.70236300  0.20035911  1.0
  Ni  Ni198  1  0.00000000  0.16666667  0.21382622  1.0
  Ni  Ni199  1  0.00000000  0.50000000  0.21382622  1.0
  Ni  Ni200  1  0.00000000  0.83333333  0.21382622  1.0
  Ni  Ni201  1  0.33333333  0.16666667  0.21382622  1.0
  Ni  Ni202  1  0.33333333  0.50000000  0.21382622  1.0
  Ni  Ni203  1  0.33333333  0.83333333  0.21382622  1.0
  Ni  Ni204  1  0.66666667  0.16666667  0.21382622  1.0
  Ni  Ni205  1  0.66666667  0.50000000  0.21382622  1.0
  Ni  Ni206  1  0.66666667  0.83333333  0.21382622  1.0
  Ni  Ni207  1  0.00000000  0.00000000  0.15827067  1.0
  Ni  Ni208  1  0.00000000  0.33333333  0.15827067  1.0
  Ni  Ni209  1  0.00000000  0.66666667  0.15827067  1.0
  Ni  Ni210  1  0.33333333  0.00000000  0.15827067  1.0
  Ni  Ni211  1  0.33333333  0.33333333  0.15827067  1.0
  Ni  Ni212  1  0.33333333  0.66666667  0.15827067  1.0
  Ni  Ni213  1  0.66666667  0.00000000  0.15827067  1.0
  Ni  Ni214  1  0.66666667  0.33333333  0.15827067  1.0
  Ni  Ni215  1  0.66666667  0.66666667  0.15827067  1.0
  Ni  Ni216  1  0.09744833  0.12450500  0.16159556  1.0
  Ni  Ni217  1  0.09744833  0.45783833  0.16159556  1.0
  Ni  Ni218  1  0.09744833  0.79117167  0.16159556  1.0
  Ni  Ni219  1  0.43078167  0.12450500  0.16159556  1.0
  Ni  Ni220  1  0.43078167  0.45783833  0.16159556  1.0
  Ni  Ni221  1  0.43078167  0.79117167  0.16159556  1.0
  Ni  Ni222  1  0.76411500  0.12450500  0.16159556  1.0
  Ni  Ni223  1  0.76411500  0.45783833  0.16159556  1.0
  Ni  Ni224  1  0.76411500  0.79117167  0.16159556  1.0
  Ni  Ni225  1  0.09744833  0.29117167  0.21715111  1.0
  Ni  Ni226  1  0.09744833  0.62450500  0.21715111  1.0
  Ni  Ni227  1  0.09744833  0.95783833  0.21715111  1.0
  Ni  Ni228  1  0.43078167  0.29117167  0.21715111  1.0
  Ni  Ni229  1  0.43078167  0.62450500  0.21715111  1.0
  Ni  Ni230  1  0.43078167  0.95783833  0.21715111  1.0
  Ni  Ni231  1  0.76411500  0.29117167  0.21715111  1.0
  Ni  Ni232  1  0.76411500  0.62450500  0.21715111  1.0
  Ni  Ni233  1  0.76411500  0.95783833  0.21715111  1.0
  Ni  Ni234  1  0.01312500  0.20882833  0.15494578  1.0
  Ni  Ni235  1  0.01312500  0.54216167  0.15494578  1.0
  Ni  Ni236  1  0.01312500  0.87549500  0.15494578  1.0
  Ni  Ni237  1  0.34645833  0.20882833  0.15494578  1.0
  Ni  Ni238  1  0.34645833  0.54216167  0.15494578  1.0
  Ni  Ni239  1  0.34645833  0.87549500  0.15494578  1.0
  Ni  Ni240  1  0.67979167  0.20882833  0.15494578  1.0
  Ni  Ni241  1  0.67979167  0.54216167  0.15494578  1.0
  Ni  Ni242  1  0.67979167  0.87549500  0.15494578  1.0
  Ni  Ni243  1  0.01312500  0.04216167  0.21050133  1.0
  Ni  Ni244  1  0.01312500  0.37549500  0.21050133  1.0
  Ni  Ni245  1  0.01312500  0.70882833  0.21050133  1.0
  Ni  Ni246  1  0.34645833  0.04216167  0.21050133  1.0
  Ni  Ni247  1  0.34645833  0.37549500  0.21050133  1.0
  Ni  Ni248  1  0.34645833  0.70882833  0.21050133  1.0
  Ni  Ni249  1  0.67979167  0.04216167  0.21050133  1.0
  Ni  Ni250  1  0.67979167  0.37549500  0.21050133  1.0
  Ni  Ni251  1  0.67979167  0.70882833  0.21050133  1.0
  Ni  Ni252  1  0.23588500  0.20882833  0.15494578  1.0
  Ni  Ni253  1  0.23588500  0.54216167  0.15494578  1.0
  Ni  Ni254  1  0.23588500  0.87549500  0.15494578  1.0
  Ni  Ni255  1  0.56921833  0.20882833  0.15494578  1.0
  Ni  Ni256  1  0.56921833  0.54216167  0.15494578  1.0
  Ni  Ni257  1  0.56921833  0.87549500  0.15494578  1.0
  Ni  Ni258  1  0.90255167  0.20882833  0.15494578  1.0
  Ni  Ni259  1  0.90255167  0.54216167  0.15494578  1.0
  Ni  Ni260  1  0.90255167  0.87549500  0.15494578  1.0
  Ni  Ni261  1  0.23588500  0.04216167  0.21050133  1.0
  Ni  Ni262  1  0.23588500  0.37549500  0.21050133  1.0
  Ni  Ni263  1  0.23588500  0.70882833  0.21050133  1.0
  Ni  Ni264  1  0.56921833  0.04216167  0.21050133  1.0
  Ni  Ni265  1  0.56921833  0.37549500  0.21050133  1.0
  Ni  Ni266  1  0.56921833  0.70882833  0.21050133  1.0
  Ni  Ni267  1  0.90255167  0.04216167  0.21050133  1.0
  Ni  Ni268  1  0.90255167  0.37549500  0.21050133  1.0
  Ni  Ni269  1  0.90255167  0.70882833  0.21050133  1.0
  Ni  Ni270  1  0.32020833  0.12450500  0.16159556  1.0
  Ni  Ni271  1  0.32020833  0.45783833  0.16159556  1.0
  Ni  Ni272  1  0.32020833  0.79117167  0.16159556  1.0
  Ni  Ni273  1  0.65354167  0.12450500  0.16159556  1.0
  Ni  Ni274  1  0.65354167  0.45783833  0.16159556  1.0
  Ni  Ni275  1  0.65354167  0.79117167  0.16159556  1.0
  Ni  Ni276  1  0.98687500  0.12450500  0.16159556  1.0
  Ni  Ni277  1  0.98687500  0.45783833  0.16159556  1.0
  Ni  Ni278  1  0.98687500  0.79117167  0.16159556  1.0
  Ni  Ni279  1  0.32020833  0.29117167  0.21715111  1.0
  Ni  Ni280  1  0.32020833  0.62450500  0.21715111  1.0
  Ni  Ni281  1  0.32020833  0.95783833  0.21715111  1.0
  Ni  Ni282  1  0.65354167  0.29117167  0.21715111  1.0
  Ni  Ni283  1  0.65354167  0.62450500  0.21715111  1.0
  Ni  Ni284  1  0.65354167  0.95783833  0.21715111  1.0
  Ni  Ni285  1  0.98687500  0.29117167  0.21715111  1.0
  Ni  Ni286  1  0.98687500  0.62450500  0.21715111  1.0
  Ni  Ni287  1  0.98687500  0.95783833  0.21715111  1.0
  Ni  Ni288  1  0.16666667  0.25000000  0.13049289  1.0
  Ni  Ni289  1  0.16666667  0.58333333  0.13049289  1.0
  Ni  Ni290  1  0.16666667  0.91666667  0.13049289  1.0
  Ni  Ni291  1  0.50000000  0.25000000  0.13049289  1.0
  Ni  Ni292  1  0.50000000  0.58333333  0.13049289  1.0
  Ni  Ni293  1  0.50000000  0.91666667  0.13049289  1.0
  Ni  Ni294  1  0.83333333  0.25000000  0.13049289  1.0
  Ni  Ni295  1  0.83333333  0.58333333  0.13049289  1.0
  Ni  Ni296  1  0.83333333  0.91666667  0.13049289  1.0
  Ni  Ni297  1  0.16666667  0.08333333  0.18604844  1.0
  Ni  Ni298  1  0.16666667  0.41666667  0.18604844  1.0
  Ni  Ni299  1  0.16666667  0.75000000  0.18604844  1.0
  Ni  Ni300  1  0.50000000  0.08333333  0.18604844  1.0
  Ni  Ni301  1  0.50000000  0.41666667  0.18604844  1.0
  Ni  Ni302  1  0.50000000  0.75000000  0.18604844  1.0
  Ni  Ni303  1  0.83333333  0.08333333  0.18604844  1.0
  Ni  Ni304  1  0.83333333  0.41666667  0.18604844  1.0
  Ni  Ni305  1  0.83333333  0.75000000  0.18604844  1.0
  Ni  Ni306  1  0.00000000  0.08333333  0.18604844  1.0
  Ni  Ni307  1  0.00000000  0.41666667  0.18604844  1.0
  Ni  Ni308  1  0.00000000  0.75000000  0.18604844  1.0
  Ni  Ni309  1  0.33333333  0.08333333  0.18604844  1.0
  Ni  Ni310  1  0.33333333  0.41666667  0.18604844  1.0
  Ni  Ni311  1  0.33333333  0.75000000  0.18604844  1.0
  Ni  Ni312  1  0.66666667  0.08333333  0.18604844  1.0
  Ni  Ni313  1  0.66666667  0.41666667  0.18604844  1.0
  Ni  Ni314  1  0.66666667  0.75000000  0.18604844  1.0
  Ni  Ni315  1  0.00000000  0.25000000  0.13049289  1.0
  Ni  Ni316  1  0.00000000  0.58333333  0.13049289  1.0
  Ni  Ni317  1  0.00000000  0.91666667  0.13049289  1.0
  Ni  Ni318  1  0.33333333  0.25000000  0.13049289  1.0
  Ni  Ni319  1  0.33333333  0.58333333  0.13049289  1.0
  Ni  Ni320  1  0.33333333  0.91666667  0.13049289  1.0
  Ni  Ni321  1  0.66666667  0.25000000  0.13049289  1.0
  Ni  Ni322  1  0.66666667  0.58333333  0.13049289  1.0
  Ni  Ni323  1  0.66666667  0.91666667  0.13049289  1.0
  Zr  Zr324  1  0.20236300  0.13097033  0.28284889  1.0
  Zr  Zr325  1  0.20236300  0.46430367  0.28284889  1.0
  Zr  Zr326  1  0.20236300  0.79763700  0.28284889  1.0
  Zr  Zr327  1  0.53569633  0.13097033  0.28284889  1.0
  Zr  Zr328  1  0.53569633  0.46430367  0.28284889  1.0
  Zr  Zr329  1  0.53569633  0.79763700  0.28284889  1.0
  Zr  Zr330  1  0.86902967  0.13097033  0.28284889  1.0
  Zr  Zr331  1  0.86902967  0.46430367  0.28284889  1.0
  Zr  Zr332  1  0.86902967  0.79763700  0.28284889  1.0
  Zr  Zr333  1  0.20236300  0.29763700  0.22729333  1.0
  Zr  Zr334  1  0.20236300  0.63097033  0.22729333  1.0
  Zr  Zr335  1  0.20236300  0.96430367  0.22729333  1.0
  Zr  Zr336  1  0.53569633  0.29763700  0.22729333  1.0
  Zr  Zr337  1  0.53569633  0.63097033  0.22729333  1.0
  Zr  Zr338  1  0.53569633  0.96430367  0.22729333  1.0
  Zr  Zr339  1  0.86902967  0.29763700  0.22729333  1.0
  Zr  Zr340  1  0.86902967  0.63097033  0.22729333  1.0
  Zr  Zr341  1  0.86902967  0.96430367  0.22729333  1.0
  Zr  Zr342  1  0.13097033  0.20236300  0.25591467  1.0
  Zr  Zr343  1  0.13097033  0.53569633  0.25591467  1.0
  Zr  Zr344  1  0.13097033  0.86902967  0.25591467  1.0
  Zr  Zr345  1  0.46430367  0.20236300  0.25591467  1.0
  Zr  Zr346  1  0.46430367  0.53569633  0.25591467  1.0
  Zr  Zr347  1  0.46430367  0.86902967  0.25591467  1.0
  Zr  Zr348  1  0.79763700  0.20236300  0.25591467  1.0
  Zr  Zr349  1  0.79763700  0.53569633  0.25591467  1.0
  Zr  Zr350  1  0.79763700  0.86902967  0.25591467  1.0
  Zr  Zr351  1  0.13097033  0.03569633  0.31147022  1.0
  Zr  Zr352  1  0.13097033  0.36902967  0.31147022  1.0
  Zr  Zr353  1  0.13097033  0.70236300  0.31147022  1.0
  Zr  Zr354  1  0.46430367  0.03569633  0.31147022  1.0
  Zr  Zr355  1  0.46430367  0.36902967  0.31147022  1.0
  Zr  Zr356  1  0.46430367  0.70236300  0.31147022  1.0
  Zr  Zr357  1  0.79763700  0.03569633  0.31147022  1.0
  Zr  Zr358  1  0.79763700  0.36902967  0.31147022  1.0
  Zr  Zr359  1  0.79763700  0.70236300  0.31147022  1.0
  Ni  Ni360  1  0.00000000  0.16666667  0.32493733  1.0
  Ni  Ni361  1  0.00000000  0.50000000  0.32493733  1.0
  Ni  Ni362  1  0.00000000  0.83333333  0.32493733  1.0
  Ni  Ni363  1  0.33333333  0.16666667  0.32493733  1.0
  Ni  Ni364  1  0.33333333  0.50000000  0.32493733  1.0
  Ni  Ni365  1  0.33333333  0.83333333  0.32493733  1.0
  Ni  Ni366  1  0.66666667  0.16666667  0.32493733  1.0
  Ni  Ni367  1  0.66666667  0.50000000  0.32493733  1.0
  Ni  Ni368  1  0.66666667  0.83333333  0.32493733  1.0
  Ni  Ni369  1  0.00000000  0.00000000  0.26938178  1.0
  Ni  Ni370  1  0.00000000  0.33333333  0.26938178  1.0
  Ni  Ni371  1  0.00000000  0.66666667  0.26938178  1.0
  Ni  Ni372  1  0.33333333  0.00000000  0.26938178  1.0
  Ni  Ni373  1  0.33333333  0.33333333  0.26938178  1.0
  Ni  Ni374  1  0.33333333  0.66666667  0.26938178  1.0
  Ni  Ni375  1  0.66666667  0.00000000  0.26938178  1.0
  Ni  Ni376  1  0.66666667  0.33333333  0.26938178  1.0
  Ni  Ni377  1  0.66666667  0.66666667  0.26938178  1.0
  Ni  Ni378  1  0.09744833  0.12450500  0.27270667  1.0
  Ni  Ni379  1  0.09744833  0.45783833  0.27270667  1.0
  Ni  Ni380  1  0.09744833  0.79117167  0.27270667  1.0
  Ni  Ni381  1  0.43078167  0.12450500  0.27270667  1.0
  Ni  Ni382  1  0.43078167  0.45783833  0.27270667  1.0
  Ni  Ni383  1  0.43078167  0.79117167  0.27270667  1.0
  Ni  Ni384  1  0.76411500  0.12450500  0.27270667  1.0
  Ni  Ni385  1  0.76411500  0.45783833  0.27270667  1.0
  Ni  Ni386  1  0.76411500  0.79117167  0.27270667  1.0
  Ni  Ni387  1  0.09744833  0.29117167  0.32826222  1.0
  Ni  Ni388  1  0.09744833  0.62450500  0.32826222  1.0
  Ni  Ni389  1  0.09744833  0.95783833  0.32826222  1.0
  Ni  Ni390  1  0.43078167  0.29117167  0.32826222  1.0
  Ni  Ni391  1  0.43078167  0.62450500  0.32826222  1.0
  Ni  Ni392  1  0.43078167  0.95783833  0.32826222  1.0
  Ni  Ni393  1  0.76411500  0.29117167  0.32826222  1.0
  Ni  Ni394  1  0.76411500  0.62450500  0.32826222  1.0
  Ni  Ni395  1  0.76411500  0.95783833  0.32826222  1.0
  Ni  Ni396  1  0.01312500  0.20882833  0.26605689  1.0
  Ni  Ni397  1  0.01312500  0.54216167  0.26605689  1.0
  Ni  Ni398  1  0.01312500  0.87549500  0.26605689  1.0
  Ni  Ni399  1  0.34645833  0.20882833  0.26605689  1.0
  Ni  Ni400  1  0.34645833  0.54216167  0.26605689  1.0
  Ni  Ni401  1  0.34645833  0.87549500  0.26605689  1.0
  Ni  Ni402  1  0.67979167  0.20882833  0.26605689  1.0
  Ni  Ni403  1  0.67979167  0.54216167  0.26605689  1.0
  Ni  Ni404  1  0.67979167  0.87549500  0.26605689  1.0
  Ni  Ni405  1  0.01312500  0.04216167  0.32161244  1.0
  Ni  Ni406  1  0.01312500  0.37549500  0.32161244  1.0
  Ni  Ni407  1  0.01312500  0.70882833  0.32161244  1.0
  Ni  Ni408  1  0.34645833  0.04216167  0.32161244  1.0
  Ni  Ni409  1  0.34645833  0.37549500  0.32161244  1.0
  Ni  Ni410  1  0.34645833  0.70882833  0.32161244  1.0
  Ni  Ni411  1  0.67979167  0.04216167  0.32161244  1.0
  Ni  Ni412  1  0.67979167  0.37549500  0.32161244  1.0
  Ni  Ni413  1  0.67979167  0.70882833  0.32161244  1.0
  Ni  Ni414  1  0.23588500  0.20882833  0.26605689  1.0
  Ni  Ni415  1  0.23588500  0.54216167  0.26605689  1.0
  Ni  Ni416  1  0.23588500  0.87549500  0.26605689  1.0
  Ni  Ni417  1  0.56921833  0.20882833  0.26605689  1.0
  Ni  Ni418  1  0.56921833  0.54216167  0.26605689  1.0
  Ni  Ni419  1  0.56921833  0.87549500  0.26605689  1.0
  Ni  Ni420  1  0.90255167  0.20882833  0.26605689  1.0
  Ni  Ni421  1  0.90255167  0.54216167  0.26605689  1.0
  Ni  Ni422  1  0.90255167  0.87549500  0.26605689  1.0
  Ni  Ni423  1  0.23588500  0.04216167  0.32161244  1.0
  Ni  Ni424  1  0.23588500  0.37549500  0.32161244  1.0
  Ni  Ni425  1  0.23588500  0.70882833  0.32161244  1.0
  Ni  Ni426  1  0.56921833  0.04216167  0.32161244  1.0
  Ni  Ni427  1  0.56921833  0.37549500  0.32161244  1.0
  Ni  Ni428  1  0.56921833  0.70882833  0.32161244  1.0
  Ni  Ni429  1  0.90255167  0.04216167  0.32161244  1.0
  Ni  Ni430  1  0.90255167  0.37549500  0.32161244  1.0
  Ni  Ni431  1  0.90255167  0.70882833  0.32161244  1.0
  Ni  Ni432  1  0.32020833  0.12450500  0.27270667  1.0
  Ni  Ni433  1  0.32020833  0.45783833  0.27270667  1.0
  Ni  Ni434  1  0.32020833  0.79117167  0.27270667  1.0
  Ni  Ni435  1  0.65354167  0.12450500  0.27270667  1.0
  Ni  Ni436  1  0.65354167  0.45783833  0.27270667  1.0
  Ni  Ni437  1  0.65354167  0.79117167  0.27270667  1.0
  Ni  Ni438  1  0.98687500  0.12450500  0.27270667  1.0
  Ni  Ni439  1  0.98687500  0.45783833  0.27270667  1.0
  Ni  Ni440  1  0.98687500  0.79117167  0.27270667  1.0
  Ni  Ni441  1  0.32020833  0.29117167  0.32826222  1.0
  Ni  Ni442  1  0.32020833  0.62450500  0.32826222  1.0
  Ni  Ni443  1  0.32020833  0.95783833  0.32826222  1.0
  Ni  Ni444  1  0.65354167  0.29117167  0.32826222  1.0
  Ni  Ni445  1  0.65354167  0.62450500  0.32826222  1.0
  Ni  Ni446  1  0.65354167  0.95783833  0.32826222  1.0
  Ni  Ni447  1  0.98687500  0.29117167  0.32826222  1.0
  Ni  Ni448  1  0.98687500  0.62450500  0.32826222  1.0
  Ni  Ni449  1  0.98687500  0.95783833  0.32826222  1.0
  Ni  Ni450  1  0.16666667  0.25000000  0.24160400  1.0
  Ni  Ni451  1  0.16666667  0.58333333  0.24160400  1.0
  Ni  Ni452  1  0.16666667  0.91666667  0.24160400  1.0
  Ni  Ni453  1  0.50000000  0.25000000  0.24160400  1.0
  Ni  Ni454  1  0.50000000  0.58333333  0.24160400  1.0
  Ni  Ni455  1  0.50000000  0.91666667  0.24160400  1.0
  Ni  Ni456  1  0.83333333  0.25000000  0.24160400  1.0
  Ni  Ni457  1  0.83333333  0.58333333  0.24160400  1.0
  Ni  Ni458  1  0.83333333  0.91666667  0.24160400  1.0
  Ni  Ni459  1  0.16666667  0.08333333  0.29715956  1.0
  Ni  Ni460  1  0.16666667  0.41666667  0.29715956  1.0
  Ni  Ni461  1  0.16666667  0.75000000  0.29715956  1.0
  Ni  Ni462  1  0.50000000  0.08333333  0.29715956  1.0
  Ni  Ni463  1  0.50000000  0.41666667  0.29715956  1.0
  Ni  Ni464  1  0.50000000  0.75000000  0.29715956  1.0
  Ni  Ni465  1  0.83333333  0.08333333  0.29715956  1.0
  Ni  Ni466  1  0.83333333  0.41666667  0.29715956  1.0
  Ni  Ni467  1  0.83333333  0.75000000  0.29715956  1.0
  Ni  Ni468  1  0.00000000  0.08333333  0.29715956  1.0
  Ni  Ni469  1  0.00000000  0.41666667  0.29715956  1.0
  Ni  Ni470  1  0.00000000  0.75000000  0.29715956  1.0
  Ni  Ni471  1  0.33333333  0.08333333  0.29715956  1.0
  Ni  Ni472  1  0.33333333  0.41666667  0.29715956  1.0
  Ni  Ni473  1  0.33333333  0.75000000  0.29715956  1.0
  Ni  Ni474  1  0.66666667  0.08333333  0.29715956  1.0
  Ni  Ni475  1  0.66666667  0.41666667  0.29715956  1.0
  Ni  Ni476  1  0.66666667  0.75000000  0.29715956  1.0
  Ni  Ni477  1  0.00000000  0.25000000  0.24160400  1.0
  Ni  Ni478  1  0.00000000  0.58333333  0.24160400  1.0
  Ni  Ni479  1  0.00000000  0.91666667  0.24160400  1.0
  Ni  Ni480  1  0.33333333  0.25000000  0.24160400  1.0
  Ni  Ni481  1  0.33333333  0.58333333  0.24160400  1.0
  Ni  Ni482  1  0.33333333  0.91666667  0.24160400  1.0
  Ni  Ni483  1  0.66666667  0.25000000  0.24160400  1.0
  Ni  Ni484  1  0.66666667  0.58333333  0.24160400  1.0
  Ni  Ni485  1  0.66666667  0.91666667  0.24160400  1.0
  Zr  Zr486  1  0.20236300  0.13097033  0.39396000  1.0
  Zr  Zr487  1  0.20236300  0.46430367  0.39396000  1.0
  Zr  Zr488  1  0.20236300  0.79763700  0.39396000  1.0
  Zr  Zr489  1  0.53569633  0.13097033  0.39396000  1.0
  Zr  Zr490  1  0.53569633  0.46430367  0.39396000  1.0
  Zr  Zr491  1  0.53569633  0.79763700  0.39396000  1.0
  Zr  Zr492  1  0.86902967  0.13097033  0.39396000  1.0
  Zr  Zr493  1  0.86902967  0.46430367  0.39396000  1.0
  Zr  Zr494  1  0.86902967  0.79763700  0.39396000  1.0
  Zr  Zr495  1  0.20236300  0.29763700  0.33840444  1.0
  Zr  Zr496  1  0.20236300  0.63097033  0.33840444  1.0
  Zr  Zr497  1  0.20236300  0.96430367  0.33840444  1.0
  Zr  Zr498  1  0.53569633  0.29763700  0.33840444  1.0
  Zr  Zr499  1  0.53569633  0.63097033  0.33840444  1.0
  Zr  Zr500  1  0.53569633  0.96430367  0.33840444  1.0
  Zr  Zr501  1  0.86902967  0.29763700  0.33840444  1.0
  Zr  Zr502  1  0.86902967  0.63097033  0.33840444  1.0
  Zr  Zr503  1  0.86902967  0.96430367  0.33840444  1.0
  Zr  Zr504  1  0.13097033  0.20236300  0.36702578  1.0
  Zr  Zr505  1  0.13097033  0.53569633  0.36702578  1.0
  Zr  Zr506  1  0.13097033  0.86902967  0.36702578  1.0
  Zr  Zr507  1  0.46430367  0.20236300  0.36702578  1.0
  Zr  Zr508  1  0.46430367  0.53569633  0.36702578  1.0
  Zr  Zr509  1  0.46430367  0.86902967  0.36702578  1.0
  Zr  Zr510  1  0.79763700  0.20236300  0.36702578  1.0
  Zr  Zr511  1  0.79763700  0.53569633  0.36702578  1.0
  Zr  Zr512  1  0.79763700  0.86902967  0.36702578  1.0
  Zr  Zr513  1  0.13097033  0.03569633  0.42258133  1.0
  Zr  Zr514  1  0.13097033  0.36902967  0.42258133  1.0
  Zr  Zr515  1  0.13097033  0.70236300  0.42258133  1.0
  Zr  Zr516  1  0.46430367  0.03569633  0.42258133  1.0
  Zr  Zr517  1  0.46430367  0.36902967  0.42258133  1.0
  Zr  Zr518  1  0.46430367  0.70236300  0.42258133  1.0
  Zr  Zr519  1  0.79763700  0.03569633  0.42258133  1.0
  Zr  Zr520  1  0.79763700  0.36902967  0.42258133  1.0
  Zr  Zr521  1  0.79763700  0.70236300  0.42258133  1.0
  Ni  Ni522  1  0.00000000  0.16666667  0.43604844  1.0
  Ni  Ni523  1  0.00000000  0.50000000  0.43604844  1.0
  Ni  Ni524  1  0.00000000  0.83333333  0.43604844  1.0
  Ni  Ni525  1  0.33333333  0.16666667  0.43604844  1.0
  Ni  Ni526  1  0.33333333  0.50000000  0.43604844  1.0
  Ni  Ni527  1  0.33333333  0.83333333  0.43604844  1.0
  Ni  Ni528  1  0.66666667  0.16666667  0.43604844  1.0
  Ni  Ni529  1  0.66666667  0.50000000  0.43604844  1.0
  Ni  Ni530  1  0.66666667  0.83333333  0.43604844  1.0
  Ni  Ni531  1  0.00000000  0.00000000  0.38049289  1.0
  Ni  Ni532  1  0.00000000  0.33333333  0.38049289  1.0
  Ni  Ni533  1  0.00000000  0.66666667  0.38049289  1.0
  Ni  Ni534  1  0.33333333  0.00000000  0.38049289  1.0
  Ni  Ni535  1  0.33333333  0.33333333  0.38049289  1.0
  Ni  Ni536  1  0.33333333  0.66666667  0.38049289  1.0
  Ni  Ni537  1  0.66666667  0.00000000  0.38049289  1.0
  Ni  Ni538  1  0.66666667  0.33333333  0.38049289  1.0
  Ni  Ni539  1  0.66666667  0.66666667  0.38049289  1.0
  Ni  Ni540  1  0.09744833  0.12450500  0.38381778  1.0
  Ni  Ni541  1  0.09744833  0.45783833  0.38381778  1.0
  Ni  Ni542  1  0.09744833  0.79117167  0.38381778  1.0
  Ni  Ni543  1  0.43078167  0.12450500  0.38381778  1.0
  Ni  Ni544  1  0.43078167  0.45783833  0.38381778  1.0
  Ni  Ni545  1  0.43078167  0.79117167  0.38381778  1.0
  Ni  Ni546  1  0.76411500  0.12450500  0.38381778  1.0
  Ni  Ni547  1  0.76411500  0.45783833  0.38381778  1.0
  Ni  Ni548  1  0.76411500  0.79117167  0.38381778  1.0
  Ni  Ni549  1  0.09744833  0.29117167  0.43937333  1.0
  Ni  Ni550  1  0.09744833  0.62450500  0.43937333  1.0
  Ni  Ni551  1  0.09744833  0.95783833  0.43937333  1.0
  Ni  Ni552  1  0.43078167  0.29117167  0.43937333  1.0
  Ni  Ni553  1  0.43078167  0.62450500  0.43937333  1.0
  Ni  Ni554  1  0.43078167  0.95783833  0.43937333  1.0
  Ni  Ni555  1  0.76411500  0.29117167  0.43937333  1.0
  Ni  Ni556  1  0.76411500  0.62450500  0.43937333  1.0
  Ni  Ni557  1  0.76411500  0.95783833  0.43937333  1.0
  Ni  Ni558  1  0.01312500  0.20882833  0.37716800  1.0
  Ni  Ni559  1  0.01312500  0.54216167  0.37716800  1.0
  Ni  Ni560  1  0.01312500  0.87549500  0.37716800  1.0
  Ni  Ni561  1  0.34645833  0.20882833  0.37716800  1.0
  Ni  Ni562  1  0.34645833  0.54216167  0.37716800  1.0
  Ni  Ni563  1  0.34645833  0.87549500  0.37716800  1.0
  Ni  Ni564  1  0.67979167  0.20882833  0.37716800  1.0
  Ni  Ni565  1  0.67979167  0.54216167  0.37716800  1.0
  Ni  Ni566  1  0.67979167  0.87549500  0.37716800  1.0
  Ni  Ni567  1  0.01312500  0.04216167  0.43272356  1.0
  Ni  Ni568  1  0.01312500  0.37549500  0.43272356  1.0
  Ni  Ni569  1  0.01312500  0.70882833  0.43272356  1.0
  Ni  Ni570  1  0.34645833  0.04216167  0.43272356  1.0
  Ni  Ni571  1  0.34645833  0.37549500  0.43272356  1.0
  Ni  Ni572  1  0.34645833  0.70882833  0.43272356  1.0
  Ni  Ni573  1  0.67979167  0.04216167  0.43272356  1.0
  Ni  Ni574  1  0.67979167  0.37549500  0.43272356  1.0
  Ni  Ni575  1  0.67979167  0.70882833  0.43272356  1.0
  Ni  Ni576  1  0.23588500  0.20882833  0.37716800  1.0
  Ni  Ni577  1  0.23588500  0.54216167  0.37716800  1.0
  Ni  Ni578  1  0.23588500  0.87549500  0.37716800  1.0
  Ni  Ni579  1  0.56921833  0.20882833  0.37716800  1.0
  Ni  Ni580  1  0.56921833  0.54216167  0.37716800  1.0
  Ni  Ni581  1  0.56921833  0.87549500  0.37716800  1.0
  Ni  Ni582  1  0.90255167  0.20882833  0.37716800  1.0
  Ni  Ni583  1  0.90255167  0.54216167  0.37716800  1.0
  Ni  Ni584  1  0.90255167  0.87549500  0.37716800  1.0
  Ni  Ni585  1  0.23588500  0.04216167  0.43272356  1.0
  Ni  Ni586  1  0.23588500  0.37549500  0.43272356  1.0
  Ni  Ni587  1  0.23588500  0.70882833  0.43272356  1.0
  Ni  Ni588  1  0.56921833  0.04216167  0.43272356  1.0
  Ni  Ni589  1  0.56921833  0.37549500  0.43272356  1.0
  Ni  Ni590  1  0.56921833  0.70882833  0.43272356  1.0
  Ni  Ni591  1  0.90255167  0.04216167  0.43272356  1.0
  Ni  Ni592  1  0.90255167  0.37549500  0.43272356  1.0
  Ni  Ni593  1  0.90255167  0.70882833  0.43272356  1.0
  Ni  Ni594  1  0.32020833  0.12450500  0.38381778  1.0
  Ni  Ni595  1  0.32020833  0.45783833  0.38381778  1.0
  Ni  Ni596  1  0.32020833  0.79117167  0.38381778  1.0
  Ni  Ni597  1  0.65354167  0.12450500  0.38381778  1.0
  Ni  Ni598  1  0.65354167  0.45783833  0.38381778  1.0
  Ni  Ni599  1  0.65354167  0.79117167  0.38381778  1.0
  Ni  Ni600  1  0.98687500  0.12450500  0.38381778  1.0
  Ni  Ni601  1  0.98687500  0.45783833  0.38381778  1.0
  Ni  Ni602  1  0.98687500  0.79117167  0.38381778  1.0
  Ni  Ni603  1  0.32020833  0.29117167  0.43937333  1.0
  Ni  Ni604  1  0.32020833  0.62450500  0.43937333  1.0
  Ni  Ni605  1  0.32020833  0.95783833  0.43937333  1.0
  Ni  Ni606  1  0.65354167  0.29117167  0.43937333  1.0
  Ni  Ni607  1  0.65354167  0.62450500  0.43937333  1.0
  Ni  Ni608  1  0.65354167  0.95783833  0.43937333  1.0
  Ni  Ni609  1  0.98687500  0.29117167  0.43937333  1.0
  Ni  Ni610  1  0.98687500  0.62450500  0.43937333  1.0
  Ni  Ni611  1  0.98687500  0.95783833  0.43937333  1.0
  Ni  Ni612  1  0.16666667  0.25000000  0.35271511  1.0
  Ni  Ni613  1  0.16666667  0.58333333  0.35271511  1.0
  Ni  Ni614  1  0.16666667  0.91666667  0.35271511  1.0
  Ni  Ni615  1  0.50000000  0.25000000  0.35271511  1.0
  Ni  Ni616  1  0.50000000  0.58333333  0.35271511  1.0
  Ni  Ni617  1  0.50000000  0.91666667  0.35271511  1.0
  Ni  Ni618  1  0.83333333  0.25000000  0.35271511  1.0
  Ni  Ni619  1  0.83333333  0.58333333  0.35271511  1.0
  Ni  Ni620  1  0.83333333  0.91666667  0.35271511  1.0
  Ni  Ni621  1  0.16666667  0.08333333  0.40827067  1.0
  Ni  Ni622  1  0.16666667  0.41666667  0.40827067  1.0
  Ni  Ni623  1  0.16666667  0.75000000  0.40827067  1.0
  Ni  Ni624  1  0.50000000  0.08333333  0.40827067  1.0
  Ni  Ni625  1  0.50000000  0.41666667  0.40827067  1.0
  Ni  Ni626  1  0.50000000  0.75000000  0.40827067  1.0
  Ni  Ni627  1  0.83333333  0.08333333  0.40827067  1.0
  Ni  Ni628  1  0.83333333  0.41666667  0.40827067  1.0
  Ni  Ni629  1  0.83333333  0.75000000  0.40827067  1.0
  Ni  Ni630  1  0.00000000  0.08333333  0.40827067  1.0
  Ni  Ni631  1  0.00000000  0.41666667  0.40827067  1.0
  Ni  Ni632  1  0.00000000  0.75000000  0.40827067  1.0
  Ni  Ni633  1  0.33333333  0.08333333  0.40827067  1.0
  Ni  Ni634  1  0.33333333  0.41666667  0.40827067  1.0
  Ni  Ni635  1  0.33333333  0.75000000  0.40827067  1.0
  Ni  Ni636  1  0.66666667  0.08333333  0.40827067  1.0
  Ni  Ni637  1  0.66666667  0.41666667  0.40827067  1.0
  Ni  Ni638  1  0.66666667  0.75000000  0.40827067  1.0
  Ni  Ni639  1  0.00000000  0.25000000  0.35271511  1.0
  Ni  Ni640  1  0.00000000  0.58333333  0.35271511  1.0
  Ni  Ni641  1  0.00000000  0.91666667  0.35271511  1.0
  Ni  Ni642  1  0.33333333  0.25000000  0.35271511  1.0
  Ni  Ni643  1  0.33333333  0.58333333  0.35271511  1.0
  Ni  Ni644  1  0.33333333  0.91666667  0.35271511  1.0
  Ni  Ni645  1  0.66666667  0.25000000  0.35271511  1.0
  Ni  Ni646  1  0.66666667  0.58333333  0.35271511  1.0
  Ni  Ni647  1  0.66666667  0.91666667  0.35271511  1.0
