# generated using pymatgen
data_Zr2Ni7
_symmetry_space_group_name_H-M   'P 1'
_cell_length_a   14.15573109
_cell_length_b   14.15573109
_cell_length_c   36.34882836
_cell_angle_alpha   87.20185843
_cell_angle_beta   92.79814157
_cell_angle_gamma   59.41454174
_symmetry_Int_Tables_number   1
_chemical_formula_structural   Zr2Ni7
_chemical_formula_sum   'Zr36 Ni126'
_cell_volume   6239.87317219
_cell_formula_units_Z   18
loop_
 _symmetry_equiv_pos_site_id
 _symmetry_equiv_pos_as_xyz
  1  'x, y, z'
loop_
 _atom_site_type_symbol
 _atom_site_label
 _atom_site_symmetry_multiplicity
 _atom_site_fract_x
 _atom_site_fract_y
 _atom_site_fract_z
 _atom_site_occupancy
  Zr  Zr0  1  0.24428300  0.08905033  0.03785233  1.0
  Zr  Zr1  1  0.24428300  0.42238367  0.03785233  1.0
  Zr  Zr2  1  0.24428300  0.75571700  0.03785233  1.0
  Zr  Zr3  1  0.57761633  0.08905033  0.03785233  1.0
  Zr  Zr4  1  0.57761633  0.42238367  0.03785233  1.0
  Zr  Zr5  1  0.57761633  0.75571700  0.03785233  1.0
  Zr  Zr6  1  0.91094967  0.08905033  0.03785233  1.0
  Zr  Zr7  1  0.91094967  0.42238367  0.03785233  1.0
  Zr  Zr8  1  0.91094967  0.75571700  0.03785233  1.0
  Zr  Zr9  1  0.26359267  0.06974067  0.12842467  1.0
  Zr  Zr10  1  0.26359267  0.40307400  0.12842467  1.0
  Zr  Zr11  1  0.26359267  0.73640733  0.12842467  1.0
  Zr  Zr12  1  0.59692600  0.06974067  0.12842467  1.0
  Zr  Zr13  1  0.59692600  0.40307400  0.12842467  1.0
  Zr  Zr14  1  0.59692600  0.73640733  0.12842467  1.0
  Zr  Zr15  1  0.93025933  0.06974067  0.12842467  1.0
  Zr  Zr16  1  0.93025933  0.40307400  0.12842467  1.0
  Zr  Zr17  1  0.93025933  0.73640733  0.12842467  1.0
  Zr  Zr18  1  0.06974067  0.26359267  0.20490867  1.0
  Zr  Zr19  1  0.06974067  0.59692600  0.20490867  1.0
  Zr  Zr20  1  0.06974067  0.93025933  0.20490867  1.0
  Zr  Zr21  1  0.40307400  0.26359267  0.20490867  1.0
  Zr  Zr22  1  0.40307400  0.59692600  0.20490867  1.0
  Zr  Zr23  1  0.40307400  0.93025933  0.20490867  1.0
  Zr  Zr24  1  0.73640733  0.26359267  0.20490867  1.0
  Zr  Zr25  1  0.73640733  0.59692600  0.20490867  1.0
  Zr  Zr26  1  0.73640733  0.93025933  0.20490867  1.0
  Zr  Zr27  1  0.08905033  0.24428300  0.29548100  1.0
  Zr  Zr28  1  0.08905033  0.57761633  0.29548100  1.0
  Zr  Zr29  1  0.08905033  0.91094967  0.29548100  1.0
  Zr  Zr30  1  0.42238367  0.24428300  0.29548100  1.0
  Zr  Zr31  1  0.42238367  0.57761633  0.29548100  1.0
  Zr  Zr32  1  0.42238367  0.91094967  0.29548100  1.0
  Zr  Zr33  1  0.75571700  0.24428300  0.29548100  1.0
  Zr  Zr34  1  0.75571700  0.57761633  0.29548100  1.0
  Zr  Zr35  1  0.75571700  0.91094967  0.29548100  1.0
  Ni  Ni36  1  0.01743633  0.20609767  0.02601700  1.0
  Ni  Ni37  1  0.01743633  0.53943100  0.02601700  1.0
  Ni  Ni38  1  0.01743633  0.87276433  0.02601700  1.0
  Ni  Ni39  1  0.35076967  0.20609767  0.02601700  1.0
  Ni  Ni40  1  0.35076967  0.53943100  0.02601700  1.0
  Ni  Ni41  1  0.35076967  0.87276433  0.02601700  1.0
  Ni  Ni42  1  0.68410300  0.20609767  0.02601700  1.0
  Ni  Ni43  1  0.68410300  0.53943100  0.02601700  1.0
  Ni  Ni44  1  0.68410300  0.87276433  0.02601700  1.0
  Ni  Ni45  1  0.12723567  0.31589700  0.02601700  1.0
  Ni  Ni46  1  0.12723567  0.64923033  0.02601700  1.0
  Ni  Ni47  1  0.12723567  0.98256367  0.02601700  1.0
  Ni  Ni48  1  0.46056900  0.31589700  0.02601700  1.0
  Ni  Ni49  1  0.46056900  0.64923033  0.02601700  1.0
  Ni  Ni50  1  0.46056900  0.98256367  0.02601700  1.0
  Ni  Ni51  1  0.79390233  0.31589700  0.02601700  1.0
  Ni  Ni52  1  0.79390233  0.64923033  0.02601700  1.0
  Ni  Ni53  1  0.79390233  0.98256367  0.02601700  1.0
  Ni  Ni54  1  0.25505933  0.24348933  0.08326533  1.0
  Ni  Ni55  1  0.25505933  0.57682267  0.08326533  1.0
  Ni  Ni56  1  0.25505933  0.91015600  0.08326533  1.0
  Ni  Ni57  1  0.58839267  0.24348933  0.08326533  1.0
  Ni  Ni58  1  0.58839267  0.57682267  0.08326533  1.0
  Ni  Ni59  1  0.58839267  0.91015600  0.08326533  1.0
  Ni  Ni60  1  0.92172600  0.24348933  0.08326533  1.0
  Ni  Ni61  1  0.92172600  0.57682267  0.08326533  1.0
  Ni  Ni62  1  0.92172600  0.91015600  0.08326533  1.0
  Ni  Ni63  1  0.08984400  0.07827400  0.08326533  1.0
  Ni  Ni64  1  0.08984400  0.41160733  0.08326533  1.0
  Ni  Ni65  1  0.08984400  0.74494067  0.08326533  1.0
  Ni  Ni66  1  0.42317733  0.07827400  0.08326533  1.0
  Ni  Ni67  1  0.42317733  0.41160733  0.08326533  1.0
  Ni  Ni68  1  0.42317733  0.74494067  0.08326533  1.0
  Ni  Ni69  1  0.75651067  0.07827400  0.08326533  1.0
  Ni  Ni70  1  0.75651067  0.41160733  0.08326533  1.0
  Ni  Ni71  1  0.75651067  0.74494067  0.08326533  1.0
  Ni  Ni72  1  0.08700800  0.24632533  0.08346833  1.0
  Ni  Ni73  1  0.08700800  0.57965867  0.08346833  1.0
  Ni  Ni74  1  0.08700800  0.91299200  0.08346833  1.0
  Ni  Ni75  1  0.42034133  0.24632533  0.08346833  1.0
  Ni  Ni76  1  0.42034133  0.57965867  0.08346833  1.0
  Ni  Ni77  1  0.42034133  0.91299200  0.08346833  1.0
  Ni  Ni78  1  0.75367467  0.24632533  0.08346833  1.0
  Ni  Ni79  1  0.75367467  0.57965867  0.08346833  1.0
  Ni  Ni80  1  0.75367467  0.91299200  0.08346833  1.0
  Ni  Ni81  1  0.15728733  0.28706033  0.14065533  1.0
  Ni  Ni82  1  0.15728733  0.62039367  0.14065533  1.0
  Ni  Ni83  1  0.15728733  0.95372700  0.14065533  1.0
  Ni  Ni84  1  0.49062067  0.28706033  0.14065533  1.0
  Ni  Ni85  1  0.49062067  0.62039367  0.14065533  1.0
  Ni  Ni86  1  0.49062067  0.95372700  0.14065533  1.0
  Ni  Ni87  1  0.82395400  0.28706033  0.14065533  1.0
  Ni  Ni88  1  0.82395400  0.62039367  0.14065533  1.0
  Ni  Ni89  1  0.82395400  0.95372700  0.14065533  1.0
  Ni  Ni90  1  0.04627300  0.17604600  0.14065533  1.0
  Ni  Ni91  1  0.04627300  0.50937933  0.14065533  1.0
  Ni  Ni92  1  0.04627300  0.84271267  0.14065533  1.0
  Ni  Ni93  1  0.37960633  0.17604600  0.14065533  1.0
  Ni  Ni94  1  0.37960633  0.50937933  0.14065533  1.0
  Ni  Ni95  1  0.37960633  0.84271267  0.14065533  1.0
  Ni  Ni96  1  0.71293967  0.17604600  0.14065533  1.0
  Ni  Ni97  1  0.71293967  0.50937933  0.14065533  1.0
  Ni  Ni98  1  0.71293967  0.84271267  0.14065533  1.0
  Ni  Ni99  1  0.17604600  0.04627300  0.19267800  1.0
  Ni  Ni100  1  0.17604600  0.37960633  0.19267800  1.0
  Ni  Ni101  1  0.17604600  0.71293967  0.19267800  1.0
  Ni  Ni102  1  0.50937933  0.04627300  0.19267800  1.0
  Ni  Ni103  1  0.50937933  0.37960633  0.19267800  1.0
  Ni  Ni104  1  0.50937933  0.71293967  0.19267800  1.0
  Ni  Ni105  1  0.84271267  0.04627300  0.19267800  1.0
  Ni  Ni106  1  0.84271267  0.37960633  0.19267800  1.0
  Ni  Ni107  1  0.84271267  0.71293967  0.19267800  1.0
  Ni  Ni108  1  0.28706033  0.15728733  0.19267800  1.0
  Ni  Ni109  1  0.28706033  0.49062067  0.19267800  1.0
  Ni  Ni110  1  0.28706033  0.82395400  0.19267800  1.0
  Ni  Ni111  1  0.62039367  0.15728733  0.19267800  1.0
  Ni  Ni112  1  0.62039367  0.49062067  0.19267800  1.0
  Ni  Ni113  1  0.62039367  0.82395400  0.19267800  1.0
  Ni  Ni114  1  0.95372700  0.15728733  0.19267800  1.0
  Ni  Ni115  1  0.95372700  0.49062067  0.19267800  1.0
  Ni  Ni116  1  0.95372700  0.82395400  0.19267800  1.0
  Ni  Ni117  1  0.24632533  0.08700800  0.24986500  1.0
  Ni  Ni118  1  0.24632533  0.42034133  0.24986500  1.0
  Ni  Ni119  1  0.24632533  0.75367467  0.24986500  1.0
  Ni  Ni120  1  0.57965867  0.08700800  0.24986500  1.0
  Ni  Ni121  1  0.57965867  0.42034133  0.24986500  1.0
  Ni  Ni122  1  0.57965867  0.75367467  0.24986500  1.0
  Ni  Ni123  1  0.91299200  0.08700800  0.24986500  1.0
  Ni  Ni124  1  0.91299200  0.42034133  0.24986500  1.0
  Ni  Ni125  1  0.91299200  0.75367467  0.24986500  1.0
  Ni  Ni126  1  0.07827400  0.08984400  0.25006800  1.0
  Ni  Ni127  1  0.07827400  0.42317733  0.25006800  1.0
  Ni  Ni128  1  0.07827400  0.75651067  0.25006800  1.0
  Ni  Ni129  1  0.41160733  0.08984400  0.25006800  1.0
  Ni  Ni130  1  0.41160733  0.42317733  0.25006800  1.0
  Ni  Ni131  1  0.41160733  0.75651067  0.25006800  1.0
  Ni  Ni132  1  0.74494067  0.08984400  0.25006800  1.0
  Ni  Ni133  1  0.74494067  0.42317733  0.25006800  1.0
  Ni  Ni134  1  0.74494067  0.75651067  0.25006800  1.0
  Ni  Ni135  1  0.24348933  0.25505933  0.25006800  1.0
  Ni  Ni136  1  0.24348933  0.58839267  0.25006800  1.0
  Ni  Ni137  1  0.24348933  0.92172600  0.25006800  1.0
  Ni  Ni138  1  0.57682267  0.25505933  0.25006800  1.0
  Ni  Ni139  1  0.57682267  0.58839267  0.25006800  1.0
  Ni  Ni140  1  0.57682267  0.92172600  0.25006800  1.0
  Ni  Ni141  1  0.91015600  0.25505933  0.25006800  1.0
  Ni  Ni142  1  0.91015600  0.58839267  0.25006800  1.0
  Ni  Ni143  1  0.91015600  0.92172600  0.25006800  1.0
  Ni  Ni144  1  0.31589700  0.12723567  0.30731633  1.0
  Ni  Ni145  1  0.31589700  0.46056900  0.30731633  1.0
  Ni  Ni146  1  0.31589700  0.79390233  0.30731633  1.0
  Ni  Ni147  1  0.64923033  0.12723567  0.30731633  1.0
  Ni  Ni148  1  0.64923033  0.46056900  0.30731633  1.0
  Ni  Ni149  1  0.64923033  0.79390233  0.30731633  1.0
  Ni  Ni150  1  0.98256367  0.12723567  0.30731633  1.0
  Ni  Ni151  1  0.98256367  0.46056900  0.30731633  1.0
  Ni  Ni152  1  0.98256367  0.79390233  0.30731633  1.0
  Ni  Ni153  1  0.20609767  0.01743633  0.30731633  1.0
  Ni  Ni154  1  0.20609767  0.35076967  0.30731633  1.0
  Ni  Ni155  1  0.20609767  0.68410300  0.30731633  1.0
  Ni  Ni156  1  0.53943100  0.01743633  0.30731633  1.0
  Ni  Ni157  1  0.53943100  0.35076967  0.30731633  1.0
  Ni  Ni158  1  0.53943100  0.68410300  0.30731633  1.0
  Ni  Ni159  1  0.87276433  0.01743633  0.30731633  1.0
  Ni  Ni160  1  0.87276433  0.35076967  0.30731633  1.0
  Ni  Ni161  1  0.87276433  0.68410300  0.30731633  1.0
