# generated using pymatgen
data_Zr2Ni7
_symmetry_space_group_name_H-M   'P 1'
_cell_length_a   14.21199375
_cell_length_b   31.89152247
_cell_length_c   31.44745010
_cell_angle_alpha   61.99128153
_cell_angle_beta   82.12991339
_cell_angle_gamma   57.63713272
_symmetry_Int_Tables_number   1
_chemical_formula_structural   Zr2Ni7
_chemical_formula_sum   'Zr72 Ni252'
_cell_volume   10503.40288553
_cell_formula_units_Z   36
loop_
 _symmetry_equiv_pos_site_id
 _symmetry_equiv_pos_as_xyz
  1  'x, y, z'
loop_
 _atom_site_type_symbol
 _atom_site_label
 _atom_site_symmetry_multiplicity
 _atom_site_fract_x
 _atom_site_fract_y
 _atom_site_fract_z
 _atom_site_occupancy
  Zr  Zr0  1  0.20236300  0.06548517  0.00318375  1.0
  Zr  Zr1  1  0.20236300  0.39881850  0.00318375  1.0
  Zr  Zr2  1  0.20236300  0.73215183  0.00318375  1.0
  Zr  Zr3  1  0.53569633  0.06548517  0.00318375  1.0
  Zr  Zr4  1  0.53569633  0.39881850  0.00318375  1.0
  Zr  Zr5  1  0.53569633  0.73215183  0.00318375  1.0
  Zr  Zr6  1  0.86902967  0.06548517  0.00318375  1.0
  Zr  Zr7  1  0.86902967  0.39881850  0.00318375  1.0
  Zr  Zr8  1  0.86902967  0.73215183  0.00318375  1.0
  Zr  Zr9  1  0.20236300  0.23215183  0.10318375  1.0
  Zr  Zr10  1  0.20236300  0.56548517  0.10318375  1.0
  Zr  Zr11  1  0.20236300  0.89881850  0.10318375  1.0
  Zr  Zr12  1  0.53569633  0.23215183  0.10318375  1.0
  Zr  Zr13  1  0.53569633  0.56548517  0.10318375  1.0
  Zr  Zr14  1  0.53569633  0.89881850  0.10318375  1.0
  Zr  Zr15  1  0.86902967  0.23215183  0.10318375  1.0
  Zr  Zr16  1  0.86902967  0.56548517  0.10318375  1.0
  Zr  Zr17  1  0.86902967  0.89881850  0.10318375  1.0
  Zr  Zr18  1  0.13097033  0.10118150  0.09044875  1.0
  Zr  Zr19  1  0.13097033  0.43451483  0.09044875  1.0
  Zr  Zr20  1  0.13097033  0.76784817  0.09044875  1.0
  Zr  Zr21  1  0.46430367  0.10118150  0.09044875  1.0
  Zr  Zr22  1  0.46430367  0.43451483  0.09044875  1.0
  Zr  Zr23  1  0.46430367  0.76784817  0.09044875  1.0
  Zr  Zr24  1  0.79763700  0.10118150  0.09044875  1.0
  Zr  Zr25  1  0.79763700  0.43451483  0.09044875  1.0
  Zr  Zr26  1  0.79763700  0.76784817  0.09044875  1.0
  Zr  Zr27  1  0.13097033  0.26784817  0.19044875  1.0
  Zr  Zr28  1  0.13097033  0.60118150  0.19044875  1.0
  Zr  Zr29  1  0.13097033  0.93451483  0.19044875  1.0
  Zr  Zr30  1  0.46430367  0.26784817  0.19044875  1.0
  Zr  Zr31  1  0.46430367  0.60118150  0.19044875  1.0
  Zr  Zr32  1  0.46430367  0.93451483  0.19044875  1.0
  Zr  Zr33  1  0.79763700  0.26784817  0.19044875  1.0
  Zr  Zr34  1  0.79763700  0.60118150  0.19044875  1.0
  Zr  Zr35  1  0.79763700  0.93451483  0.19044875  1.0
  Ni  Ni36  1  0.00000000  0.16666667  0.19681625  1.0
  Ni  Ni37  1  0.00000000  0.50000000  0.19681625  1.0
  Ni  Ni38  1  0.00000000  0.83333333  0.19681625  1.0
  Ni  Ni39  1  0.33333333  0.16666667  0.19681625  1.0
  Ni  Ni40  1  0.33333333  0.50000000  0.19681625  1.0
  Ni  Ni41  1  0.33333333  0.83333333  0.19681625  1.0
  Ni  Ni42  1  0.66666667  0.16666667  0.19681625  1.0
  Ni  Ni43  1  0.66666667  0.50000000  0.19681625  1.0
  Ni  Ni44  1  0.66666667  0.83333333  0.19681625  1.0
  Ni  Ni45  1  0.00000000  0.00000000  0.09681625  1.0
  Ni  Ni46  1  0.00000000  0.33333333  0.09681625  1.0
  Ni  Ni47  1  0.00000000  0.66666667  0.09681625  1.0
  Ni  Ni48  1  0.33333333  1.00000000  0.09681625  1.0
  Ni  Ni49  1  0.33333333  0.33333333  0.09681625  1.0
  Ni  Ni50  1  0.33333333  0.66666667  0.09681625  1.0
  Ni  Ni51  1  0.66666667  1.00000000  0.09681625  1.0
  Ni  Ni52  1  0.66666667  0.33333333  0.09681625  1.0
  Ni  Ni53  1  0.66666667  0.66666667  0.09681625  1.0
  Ni  Ni54  1  0.09744833  0.00656250  0.02416055  1.0
  Ni  Ni55  1  0.09744833  0.33989583  0.02416055  1.0
  Ni  Ni56  1  0.09744833  0.67322917  0.02416055  1.0
  Ni  Ni57  1  0.43078167  0.00656250  0.02416055  1.0
  Ni  Ni58  1  0.43078167  0.33989583  0.02416055  1.0
  Ni  Ni59  1  0.43078167  0.67322917  0.02416055  1.0
  Ni  Ni60  1  0.76411500  0.00656250  0.02416055  1.0
  Ni  Ni61  1  0.76411500  0.33989583  0.02416055  1.0
  Ni  Ni62  1  0.76411500  0.67322917  0.02416055  1.0
  Ni  Ni63  1  0.09744833  0.17322917  0.12416055  1.0
  Ni  Ni64  1  0.09744833  0.50656250  0.12416055  1.0
  Ni  Ni65  1  0.09744833  0.83989583  0.12416055  1.0
  Ni  Ni66  1  0.43078167  0.17322917  0.12416055  1.0
  Ni  Ni67  1  0.43078167  0.50656250  0.12416055  1.0
  Ni  Ni68  1  0.43078167  0.83989583  0.12416055  1.0
  Ni  Ni69  1  0.76411500  0.17322917  0.12416055  1.0
  Ni  Ni70  1  0.76411500  0.50656250  0.12416055  1.0
  Ni  Ni71  1  0.76411500  0.83989583  0.12416055  1.0
  Ni  Ni72  1  0.01312500  0.04872417  0.13629995  1.0
  Ni  Ni73  1  0.01312500  0.38205750  0.13629995  1.0
  Ni  Ni74  1  0.01312500  0.71539083  0.13629995  1.0
  Ni  Ni75  1  0.34645833  0.04872417  0.13629995  1.0
  Ni  Ni76  1  0.34645833  0.38205750  0.13629995  1.0
  Ni  Ni77  1  0.34645833  0.71539083  0.13629995  1.0
  Ni  Ni78  1  0.67979167  0.04872417  0.13629995  1.0
  Ni  Ni79  1  0.67979167  0.38205750  0.13629995  1.0
  Ni  Ni80  1  0.67979167  0.71539083  0.13629995  1.0
  Ni  Ni81  1  0.01312500  0.21539083  0.03629995  1.0
  Ni  Ni82  1  0.01312500  0.54872417  0.03629995  1.0
  Ni  Ni83  1  0.01312500  0.88205750  0.03629995  1.0
  Ni  Ni84  1  0.34645833  0.21539083  0.03629995  1.0
  Ni  Ni85  1  0.34645833  0.54872417  0.03629995  1.0
  Ni  Ni86  1  0.34645833  0.88205750  0.03629995  1.0
  Ni  Ni87  1  0.67979167  0.21539083  0.03629995  1.0
  Ni  Ni88  1  0.67979167  0.54872417  0.03629995  1.0
  Ni  Ni89  1  0.67979167  0.88205750  0.03629995  1.0
  Ni  Ni90  1  0.23588500  0.16010417  0.06947195  1.0
  Ni  Ni91  1  0.23588500  0.49343750  0.06947195  1.0
  Ni  Ni92  1  0.23588500  0.82677083  0.06947195  1.0
  Ni  Ni93  1  0.56921833  0.16010417  0.06947195  1.0
  Ni  Ni94  1  0.56921833  0.49343750  0.06947195  1.0
  Ni  Ni95  1  0.56921833  0.82677083  0.06947195  1.0
  Ni  Ni96  1  0.90255167  0.16010417  0.06947195  1.0
  Ni  Ni97  1  0.90255167  0.49343750  0.06947195  1.0
  Ni  Ni98  1  0.90255167  0.82677083  0.06947195  1.0
  Ni  Ni99  1  0.23588500  0.32677083  0.16947195  1.0
  Ni  Ni100  1  0.23588500  0.66010417  0.16947195  1.0
  Ni  Ni101  1  0.23588500  0.99343750  0.16947195  1.0
  Ni  Ni102  1  0.56921833  0.32677083  0.16947195  1.0
  Ni  Ni103  1  0.56921833  0.66010417  0.16947195  1.0
  Ni  Ni104  1  0.56921833  0.99343750  0.16947195  1.0
  Ni  Ni105  1  0.90255167  0.32677083  0.16947195  1.0
  Ni  Ni106  1  0.90255167  0.66010417  0.16947195  1.0
  Ni  Ni107  1  0.90255167  0.99343750  0.16947195  1.0
  Ni  Ni108  1  0.32020833  0.11794250  0.15733255  1.0
  Ni  Ni109  1  0.32020833  0.45127583  0.15733255  1.0
  Ni  Ni110  1  0.32020833  0.78460917  0.15733255  1.0
  Ni  Ni111  1  0.65354167  0.11794250  0.15733255  1.0
  Ni  Ni112  1  0.65354167  0.45127583  0.15733255  1.0
  Ni  Ni113  1  0.65354167  0.78460917  0.15733255  1.0
  Ni  Ni114  1  0.98687500  0.11794250  0.15733255  1.0
  Ni  Ni115  1  0.98687500  0.45127583  0.15733255  1.0
  Ni  Ni116  1  0.98687500  0.78460917  0.15733255  1.0
  Ni  Ni117  1  0.32020833  0.28460917  0.05733255  1.0
  Ni  Ni118  1  0.32020833  0.61794250  0.05733255  1.0
  Ni  Ni119  1  0.32020833  0.95127583  0.05733255  1.0
  Ni  Ni120  1  0.65354167  0.28460917  0.05733255  1.0
  Ni  Ni121  1  0.65354167  0.61794250  0.05733255  1.0
  Ni  Ni122  1  0.65354167  0.95127583  0.05733255  1.0
  Ni  Ni123  1  0.98687500  0.28460917  0.05733255  1.0
  Ni  Ni124  1  0.98687500  0.61794250  0.05733255  1.0
  Ni  Ni125  1  0.98687500  0.95127583  0.05733255  1.0
  Ni  Ni126  1  0.16666667  0.16666667  0.19681625  1.0
  Ni  Ni127  1  0.16666667  0.50000000  0.19681625  1.0
  Ni  Ni128  1  0.16666667  0.83333333  0.19681625  1.0
  Ni  Ni129  1  0.50000000  0.16666667  0.19681625  1.0
  Ni  Ni130  1  0.50000000  0.50000000  0.19681625  1.0
  Ni  Ni131  1  0.50000000  0.83333333  0.19681625  1.0
  Ni  Ni132  1  0.83333333  0.16666667  0.19681625  1.0
  Ni  Ni133  1  0.83333333  0.50000000  0.19681625  1.0
  Ni  Ni134  1  0.83333333  0.83333333  0.19681625  1.0
  Ni  Ni135  1  0.16666667  0.00000000  0.09681625  1.0
  Ni  Ni136  1  0.16666667  0.33333333  0.09681625  1.0
  Ni  Ni137  1  0.16666667  0.66666667  0.09681625  1.0
  Ni  Ni138  1  0.50000000  1.00000000  0.09681625  1.0
  Ni  Ni139  1  0.50000000  0.33333333  0.09681625  1.0
  Ni  Ni140  1  0.50000000  0.66666667  0.09681625  1.0
  Ni  Ni141  1  0.83333333  1.00000000  0.09681625  1.0
  Ni  Ni142  1  0.83333333  0.33333333  0.09681625  1.0
  Ni  Ni143  1  0.83333333  0.66666667  0.09681625  1.0
  Ni  Ni144  1  0.00000000  0.08333333  0.04681625  1.0
  Ni  Ni145  1  0.00000000  0.41666667  0.04681625  1.0
  Ni  Ni146  1  0.00000000  0.75000000  0.04681625  1.0
  Ni  Ni147  1  0.33333333  0.08333333  0.04681625  1.0
  Ni  Ni148  1  0.33333333  0.41666667  0.04681625  1.0
  Ni  Ni149  1  0.33333333  0.75000000  0.04681625  1.0
  Ni  Ni150  1  0.66666667  0.08333333  0.04681625  1.0
  Ni  Ni151  1  0.66666667  0.41666667  0.04681625  1.0
  Ni  Ni152  1  0.66666667  0.75000000  0.04681625  1.0
  Ni  Ni153  1  0.00000000  0.25000000  0.14681625  1.0
  Ni  Ni154  1  0.00000000  0.58333333  0.14681625  1.0
  Ni  Ni155  1  0.00000000  0.91666667  0.14681625  1.0
  Ni  Ni156  1  0.33333333  0.25000000  0.14681625  1.0
  Ni  Ni157  1  0.33333333  0.58333333  0.14681625  1.0
  Ni  Ni158  1  0.33333333  0.91666667  0.14681625  1.0
  Ni  Ni159  1  0.66666667  0.25000000  0.14681625  1.0
  Ni  Ni160  1  0.66666667  0.58333333  0.14681625  1.0
  Ni  Ni161  1  0.66666667  0.91666667  0.14681625  1.0
  Zr  Zr162  1  0.20236300  0.06548517  0.20318375  1.0
  Zr  Zr163  1  0.20236300  0.39881850  0.20318375  1.0
  Zr  Zr164  1  0.20236300  0.73215183  0.20318375  1.0
  Zr  Zr165  1  0.53569633  0.06548517  0.20318375  1.0
  Zr  Zr166  1  0.53569633  0.39881850  0.20318375  1.0
  Zr  Zr167  1  0.53569633  0.73215183  0.20318375  1.0
  Zr  Zr168  1  0.86902967  0.06548517  0.20318375  1.0
  Zr  Zr169  1  0.86902967  0.39881850  0.20318375  1.0
  Zr  Zr170  1  0.86902967  0.73215183  0.20318375  1.0
  Zr  Zr171  1  0.20236300  0.23215183  0.30318375  1.0
  Zr  Zr172  1  0.20236300  0.56548517  0.30318375  1.0
  Zr  Zr173  1  0.20236300  0.89881850  0.30318375  1.0
  Zr  Zr174  1  0.53569633  0.23215183  0.30318375  1.0
  Zr  Zr175  1  0.53569633  0.56548517  0.30318375  1.0
  Zr  Zr176  1  0.53569633  0.89881850  0.30318375  1.0
  Zr  Zr177  1  0.86902967  0.23215183  0.30318375  1.0
  Zr  Zr178  1  0.86902967  0.56548517  0.30318375  1.0
  Zr  Zr179  1  0.86902967  0.89881850  0.30318375  1.0
  Zr  Zr180  1  0.13097033  0.10118150  0.29044875  1.0
  Zr  Zr181  1  0.13097033  0.43451483  0.29044875  1.0
  Zr  Zr182  1  0.13097033  0.76784817  0.29044875  1.0
  Zr  Zr183  1  0.46430367  0.10118150  0.29044875  1.0
  Zr  Zr184  1  0.46430367  0.43451483  0.29044875  1.0
  Zr  Zr185  1  0.46430367  0.76784817  0.29044875  1.0
  Zr  Zr186  1  0.79763700  0.10118150  0.29044875  1.0
  Zr  Zr187  1  0.79763700  0.43451483  0.29044875  1.0
  Zr  Zr188  1  0.79763700  0.76784817  0.29044875  1.0
  Zr  Zr189  1  0.13097033  0.26784817  0.39044875  1.0
  Zr  Zr190  1  0.13097033  0.60118150  0.39044875  1.0
  Zr  Zr191  1  0.13097033  0.93451483  0.39044875  1.0
  Zr  Zr192  1  0.46430367  0.26784817  0.39044875  1.0
  Zr  Zr193  1  0.46430367  0.60118150  0.39044875  1.0
  Zr  Zr194  1  0.46430367  0.93451483  0.39044875  1.0
  Zr  Zr195  1  0.79763700  0.26784817  0.39044875  1.0
  Zr  Zr196  1  0.79763700  0.60118150  0.39044875  1.0
  Zr  Zr197  1  0.79763700  0.93451483  0.39044875  1.0
  Ni  Ni198  1  0.00000000  0.16666667  0.39681625  1.0
  Ni  Ni199  1  0.00000000  0.50000000  0.39681625  1.0
  Ni  Ni200  1  0.00000000  0.83333333  0.39681625  1.0
  Ni  Ni201  1  0.33333333  0.16666667  0.39681625  1.0
  Ni  Ni202  1  0.33333333  0.50000000  0.39681625  1.0
  Ni  Ni203  1  0.33333333  0.83333333  0.39681625  1.0
  Ni  Ni204  1  0.66666667  0.16666667  0.39681625  1.0
  Ni  Ni205  1  0.66666667  0.50000000  0.39681625  1.0
  Ni  Ni206  1  0.66666667  0.83333333  0.39681625  1.0
  Ni  Ni207  1  0.00000000  0.00000000  0.29681625  1.0
  Ni  Ni208  1  0.00000000  0.33333333  0.29681625  1.0
  Ni  Ni209  1  0.00000000  0.66666667  0.29681625  1.0
  Ni  Ni210  1  0.33333333  1.00000000  0.29681625  1.0
  Ni  Ni211  1  0.33333333  0.33333333  0.29681625  1.0
  Ni  Ni212  1  0.33333333  0.66666667  0.29681625  1.0
  Ni  Ni213  1  0.66666667  1.00000000  0.29681625  1.0
  Ni  Ni214  1  0.66666667  0.33333333  0.29681625  1.0
  Ni  Ni215  1  0.66666667  0.66666667  0.29681625  1.0
  Ni  Ni216  1  0.09744833  0.00656250  0.22416055  1.0
  Ni  Ni217  1  0.09744833  0.33989583  0.22416055  1.0
  Ni  Ni218  1  0.09744833  0.67322917  0.22416055  1.0
  Ni  Ni219  1  0.43078167  0.00656250  0.22416055  1.0
  Ni  Ni220  1  0.43078167  0.33989583  0.22416055  1.0
  Ni  Ni221  1  0.43078167  0.67322917  0.22416055  1.0
  Ni  Ni222  1  0.76411500  0.00656250  0.22416055  1.0
  Ni  Ni223  1  0.76411500  0.33989583  0.22416055  1.0
  Ni  Ni224  1  0.76411500  0.67322917  0.22416055  1.0
  Ni  Ni225  1  0.09744833  0.17322917  0.32416055  1.0
  Ni  Ni226  1  0.09744833  0.50656250  0.32416055  1.0
  Ni  Ni227  1  0.09744833  0.83989583  0.32416055  1.0
  Ni  Ni228  1  0.43078167  0.17322917  0.32416055  1.0
  Ni  Ni229  1  0.43078167  0.50656250  0.32416055  1.0
  Ni  Ni230  1  0.43078167  0.83989583  0.32416055  1.0
  Ni  Ni231  1  0.76411500  0.17322917  0.32416055  1.0
  Ni  Ni232  1  0.76411500  0.50656250  0.32416055  1.0
  Ni  Ni233  1  0.76411500  0.83989583  0.32416055  1.0
  Ni  Ni234  1  0.01312500  0.04872417  0.33629995  1.0
  Ni  Ni235  1  0.01312500  0.38205750  0.33629995  1.0
  Ni  Ni236  1  0.01312500  0.71539083  0.33629995  1.0
  Ni  Ni237  1  0.34645833  0.04872417  0.33629995  1.0
  Ni  Ni238  1  0.34645833  0.38205750  0.33629995  1.0
  Ni  Ni239  1  0.34645833  0.71539083  0.33629995  1.0
  Ni  Ni240  1  0.67979167  0.04872417  0.33629995  1.0
  Ni  Ni241  1  0.67979167  0.38205750  0.33629995  1.0
  Ni  Ni242  1  0.67979167  0.71539083  0.33629995  1.0
  Ni  Ni243  1  0.01312500  0.21539083  0.23629995  1.0
  Ni  Ni244  1  0.01312500  0.54872417  0.23629995  1.0
  Ni  Ni245  1  0.01312500  0.88205750  0.23629995  1.0
  Ni  Ni246  1  0.34645833  0.21539083  0.23629995  1.0
  Ni  Ni247  1  0.34645833  0.54872417  0.23629995  1.0
  Ni  Ni248  1  0.34645833  0.88205750  0.23629995  1.0
  Ni  Ni249  1  0.67979167  0.21539083  0.23629995  1.0
  Ni  Ni250  1  0.67979167  0.54872417  0.23629995  1.0
  Ni  Ni251  1  0.67979167  0.88205750  0.23629995  1.0
  Ni  Ni252  1  0.23588500  0.16010417  0.26947195  1.0
  Ni  Ni253  1  0.23588500  0.49343750  0.26947195  1.0
  Ni  Ni254  1  0.23588500  0.82677083  0.26947195  1.0
  Ni  Ni255  1  0.56921833  0.16010417  0.26947195  1.0
  Ni  Ni256  1  0.56921833  0.49343750  0.26947195  1.0
  Ni  Ni257  1  0.56921833  0.82677083  0.26947195  1.0
  Ni  Ni258  1  0.90255167  0.16010417  0.26947195  1.0
  Ni  Ni259  1  0.90255167  0.49343750  0.26947195  1.0
  Ni  Ni260  1  0.90255167  0.82677083  0.26947195  1.0
  Ni  Ni261  1  0.23588500  0.32677083  0.36947195  1.0
  Ni  Ni262  1  0.23588500  0.66010417  0.36947195  1.0
  Ni  Ni263  1  0.23588500  0.99343750  0.36947195  1.0
  Ni  Ni264  1  0.56921833  0.32677083  0.36947195  1.0
  Ni  Ni265  1  0.56921833  0.66010417  0.36947195  1.0
  Ni  Ni266  1  0.56921833  0.99343750  0.36947195  1.0
  Ni  Ni267  1  0.90255167  0.32677083  0.36947195  1.0
  Ni  Ni268  1  0.90255167  0.66010417  0.36947195  1.0
  Ni  Ni269  1  0.90255167  0.99343750  0.36947195  1.0
  Ni  Ni270  1  0.32020833  0.11794250  0.35733255  1.0
  Ni  Ni271  1  0.32020833  0.45127583  0.35733255  1.0
  Ni  Ni272  1  0.32020833  0.78460917  0.35733255  1.0
  Ni  Ni273  1  0.65354167  0.11794250  0.35733255  1.0
  Ni  Ni274  1  0.65354167  0.45127583  0.35733255  1.0
  Ni  Ni275  1  0.65354167  0.78460917  0.35733255  1.0
  Ni  Ni276  1  0.98687500  0.11794250  0.35733255  1.0
  Ni  Ni277  1  0.98687500  0.45127583  0.35733255  1.0
  Ni  Ni278  1  0.98687500  0.78460917  0.35733255  1.0
  Ni  Ni279  1  0.32020833  0.28460917  0.25733255  1.0
  Ni  Ni280  1  0.32020833  0.61794250  0.25733255  1.0
  Ni  Ni281  1  0.32020833  0.95127583  0.25733255  1.0
  Ni  Ni282  1  0.65354167  0.28460917  0.25733255  1.0
  Ni  Ni283  1  0.65354167  0.61794250  0.25733255  1.0
  Ni  Ni284  1  0.65354167  0.95127583  0.25733255  1.0
  Ni  Ni285  1  0.98687500  0.28460917  0.25733255  1.0
  Ni  Ni286  1  0.98687500  0.61794250  0.25733255  1.0
  Ni  Ni287  1  0.98687500  0.95127583  0.25733255  1.0
  Ni  Ni288  1  0.16666667  0.16666667  0.39681625  1.0
  Ni  Ni289  1  0.16666667  0.50000000  0.39681625  1.0
  Ni  Ni290  1  0.16666667  0.83333333  0.39681625  1.0
  Ni  Ni291  1  0.50000000  0.16666667  0.39681625  1.0
  Ni  Ni292  1  0.50000000  0.50000000  0.39681625  1.0
  Ni  Ni293  1  0.50000000  0.83333333  0.39681625  1.0
  Ni  Ni294  1  0.83333333  0.16666667  0.39681625  1.0
  Ni  Ni295  1  0.83333333  0.50000000  0.39681625  1.0
  Ni  Ni296  1  0.83333333  0.83333333  0.39681625  1.0
  Ni  Ni297  1  0.16666667  0.00000000  0.29681625  1.0
  Ni  Ni298  1  0.16666667  0.33333333  0.29681625  1.0
  Ni  Ni299  1  0.16666667  0.66666667  0.29681625  1.0
  Ni  Ni300  1  0.50000000  1.00000000  0.29681625  1.0
  Ni  Ni301  1  0.50000000  0.33333333  0.29681625  1.0
  Ni  Ni302  1  0.50000000  0.66666667  0.29681625  1.0
  Ni  Ni303  1  0.83333333  1.00000000  0.29681625  1.0
  Ni  Ni304  1  0.83333333  0.33333333  0.29681625  1.0
  Ni  Ni305  1  0.83333333  0.66666667  0.29681625  1.0
  Ni  Ni306  1  0.00000000  0.08333333  0.24681625  1.0
  Ni  Ni307  1  0.00000000  0.41666667  0.24681625  1.0
  Ni  Ni308  1  0.00000000  0.75000000  0.24681625  1.0
  Ni  Ni309  1  0.33333333  0.08333333  0.24681625  1.0
  Ni  Ni310  1  0.33333333  0.41666667  0.24681625  1.0
  Ni  Ni311  1  0.33333333  0.75000000  0.24681625  1.0
  Ni  Ni312  1  0.66666667  0.08333333  0.24681625  1.0
  Ni  Ni313  1  0.66666667  0.41666667  0.24681625  1.0
  Ni  Ni314  1  0.66666667  0.75000000  0.24681625  1.0
  Ni  Ni315  1  0.00000000  0.25000000  0.34681625  1.0
  Ni  Ni316  1  0.00000000  0.58333333  0.34681625  1.0
  Ni  Ni317  1  0.00000000  0.91666667  0.34681625  1.0
  Ni  Ni318  1  0.33333333  0.25000000  0.34681625  1.0
  Ni  Ni319  1  0.33333333  0.58333333  0.34681625  1.0
  Ni  Ni320  1  0.33333333  0.91666667  0.34681625  1.0
  Ni  Ni321  1  0.66666667  0.25000000  0.34681625  1.0
  Ni  Ni322  1  0.66666667  0.58333333  0.34681625  1.0
  Ni  Ni323  1  0.66666667  0.91666667  0.34681625  1.0
