# generated using pymatgen
data_Zr2Ni
_symmetry_space_group_name_H-M   'P 1'
_cell_length_a   27.60473312
_cell_length_b   38.90171119
_cell_length_c   74.20121352
_cell_angle_alpha   127.60473567
_cell_angle_beta   150.23388008
_cell_angle_gamma   69.21875054
_symmetry_Int_Tables_number   1
_chemical_formula_structural   Zr2Ni
_chemical_formula_sum   'Zr432 Ni216'
_cell_volume   28071.33266183
_cell_formula_units_Z   216
loop_
 _symmetry_equiv_pos_site_id
 _symmetry_equiv_pos_as_xyz
  1  'x, y, z'
loop_
 _atom_site_type_symbol
 _atom_site_label
 _atom_site_symmetry_multiplicity
 _atom_site_fract_x
 _atom_site_fract_y
 _atom_site_fract_z
 _atom_site_occupancy
  Zr  Zr0  1  0.22102000  0.13768667  0.00815571  1.0
  Zr  Zr1  1  0.22102000  0.47102000  0.00815571  1.0
  Zr  Zr2  1  0.22102000  0.80435333  0.00815571  1.0
  Zr  Zr3  1  0.55435333  0.13768667  0.00815571  1.0
  Zr  Zr4  1  0.55435333  0.47102000  0.00815571  1.0
  Zr  Zr5  1  0.55435333  0.80435333  0.00815571  1.0
  Zr  Zr6  1  0.88768667  0.13768667  0.00815571  1.0
  Zr  Zr7  1  0.88768667  0.47102000  0.00815571  1.0
  Zr  Zr8  1  0.88768667  0.80435333  0.00815571  1.0
  Zr  Zr9  1  0.22102000  0.30435333  0.04387000  1.0
  Zr  Zr10  1  0.22102000  0.63768667  0.04387000  1.0
  Zr  Zr11  1  0.22102000  0.97102000  0.04387000  1.0
  Zr  Zr12  1  0.55435333  0.30435333  0.04387000  1.0
  Zr  Zr13  1  0.55435333  0.63768667  0.04387000  1.0
  Zr  Zr14  1  0.55435333  0.97102000  0.04387000  1.0
  Zr  Zr15  1  0.88768667  0.30435333  0.04387000  1.0
  Zr  Zr16  1  0.88768667  0.63768667  0.04387000  1.0
  Zr  Zr17  1  0.88768667  0.97102000  0.04387000  1.0
  Zr  Zr18  1  0.11231333  0.02898000  0.00970143  1.0
  Zr  Zr19  1  0.11231333  0.36231333  0.00970143  1.0
  Zr  Zr20  1  0.11231333  0.69564667  0.00970143  1.0
  Zr  Zr21  1  0.44564667  0.02898000  0.00970143  1.0
  Zr  Zr22  1  0.44564667  0.36231333  0.00970143  1.0
  Zr  Zr23  1  0.44564667  0.69564667  0.00970143  1.0
  Zr  Zr24  1  0.77898000  0.02898000  0.00970143  1.0
  Zr  Zr25  1  0.77898000  0.36231333  0.00970143  1.0
  Zr  Zr26  1  0.77898000  0.69564667  0.00970143  1.0
  Zr  Zr27  1  0.11231333  0.19564667  0.04541571  1.0
  Zr  Zr28  1  0.11231333  0.52898000  0.04541571  1.0
  Zr  Zr29  1  0.11231333  0.86231333  0.04541571  1.0
  Zr  Zr30  1  0.44564667  0.19564667  0.04541571  1.0
  Zr  Zr31  1  0.44564667  0.52898000  0.04541571  1.0
  Zr  Zr32  1  0.44564667  0.86231333  0.04541571  1.0
  Zr  Zr33  1  0.77898000  0.19564667  0.04541571  1.0
  Zr  Zr34  1  0.77898000  0.52898000  0.04541571  1.0
  Zr  Zr35  1  0.77898000  0.86231333  0.04541571  1.0
  Zr  Zr36  1  0.27898000  0.08333333  0.04464286  1.0
  Zr  Zr37  1  0.27898000  0.41666667  0.04464286  1.0
  Zr  Zr38  1  0.27898000  0.75000000  0.04464286  1.0
  Zr  Zr39  1  0.61231333  0.08333333  0.04464286  1.0
  Zr  Zr40  1  0.61231333  0.41666667  0.04464286  1.0
  Zr  Zr41  1  0.61231333  0.75000000  0.04464286  1.0
  Zr  Zr42  1  0.94564667  0.08333333  0.04464286  1.0
  Zr  Zr43  1  0.94564667  0.41666667  0.04464286  1.0
  Zr  Zr44  1  0.94564667  0.75000000  0.04464286  1.0
  Zr  Zr45  1  0.27898000  0.25000000  0.00892857  1.0
  Zr  Zr46  1  0.27898000  0.58333333  0.00892857  1.0
  Zr  Zr47  1  0.27898000  0.91666667  0.00892857  1.0
  Zr  Zr48  1  0.61231333  0.25000000  0.00892857  1.0
  Zr  Zr49  1  0.61231333  0.58333333  0.00892857  1.0
  Zr  Zr50  1  0.61231333  0.91666667  0.00892857  1.0
  Zr  Zr51  1  0.94564667  0.25000000  0.00892857  1.0
  Zr  Zr52  1  0.94564667  0.58333333  0.00892857  1.0
  Zr  Zr53  1  0.94564667  0.91666667  0.00892857  1.0
  Zr  Zr54  1  0.05435333  0.08333333  0.04464286  1.0
  Zr  Zr55  1  0.05435333  0.41666667  0.04464286  1.0
  Zr  Zr56  1  0.05435333  0.75000000  0.04464286  1.0
  Zr  Zr57  1  0.38768667  0.08333333  0.04464286  1.0
  Zr  Zr58  1  0.38768667  0.41666667  0.04464286  1.0
  Zr  Zr59  1  0.38768667  0.75000000  0.04464286  1.0
  Zr  Zr60  1  0.72102000  0.08333333  0.04464286  1.0
  Zr  Zr61  1  0.72102000  0.41666667  0.04464286  1.0
  Zr  Zr62  1  0.72102000  0.75000000  0.04464286  1.0
  Zr  Zr63  1  0.05435333  0.25000000  0.00892857  1.0
  Zr  Zr64  1  0.05435333  0.58333333  0.00892857  1.0
  Zr  Zr65  1  0.05435333  0.91666667  0.00892857  1.0
  Zr  Zr66  1  0.38768667  0.25000000  0.00892857  1.0
  Zr  Zr67  1  0.38768667  0.58333333  0.00892857  1.0
  Zr  Zr68  1  0.38768667  0.91666667  0.00892857  1.0
  Zr  Zr69  1  0.72102000  0.25000000  0.00892857  1.0
  Zr  Zr70  1  0.72102000  0.58333333  0.00892857  1.0
  Zr  Zr71  1  0.72102000  0.91666667  0.00892857  1.0
  Ni  Ni72  1  0.25000000  0.33333333  0.02678571  1.0
  Ni  Ni73  1  0.25000000  0.66666667  0.02678571  1.0
  Ni  Ni74  1  0.25000000  0.00000000  0.02678571  1.0
  Ni  Ni75  1  0.58333333  0.33333333  0.02678571  1.0
  Ni  Ni76  1  0.58333333  0.66666667  0.02678571  1.0
  Ni  Ni77  1  0.58333333  1.00000000  0.02678571  1.0
  Ni  Ni78  1  0.91666667  0.33333333  0.02678571  1.0
  Ni  Ni79  1  0.91666667  0.66666667  0.02678571  1.0
  Ni  Ni80  1  0.91666667  1.00000000  0.02678571  1.0
  Ni  Ni81  1  0.25000000  0.16666667  0.06250000  1.0
  Ni  Ni82  1  0.25000000  0.50000000  0.06250000  1.0
  Ni  Ni83  1  0.25000000  0.83333333  0.06250000  1.0
  Ni  Ni84  1  0.58333333  0.16666667  0.06250000  1.0
  Ni  Ni85  1  0.58333333  0.50000000  0.06250000  1.0
  Ni  Ni86  1  0.58333333  0.83333333  0.06250000  1.0
  Ni  Ni87  1  0.91666667  0.16666667  0.06250000  1.0
  Ni  Ni88  1  0.91666667  0.50000000  0.06250000  1.0
  Ni  Ni89  1  0.91666667  0.83333333  0.06250000  1.0
  Ni  Ni90  1  0.08333333  0.00000000  0.02678571  1.0
  Ni  Ni91  1  0.08333333  0.33333333  0.02678571  1.0
  Ni  Ni92  1  0.08333333  0.66666667  0.02678571  1.0
  Ni  Ni93  1  0.41666667  0.00000000  0.02678571  1.0
  Ni  Ni94  1  0.41666667  0.33333333  0.02678571  1.0
  Ni  Ni95  1  0.41666667  0.66666667  0.02678571  1.0
  Ni  Ni96  1  0.75000000  1.00000000  0.02678571  1.0
  Ni  Ni97  1  0.75000000  0.33333333  0.02678571  1.0
  Ni  Ni98  1  0.75000000  0.66666667  0.02678571  1.0
  Ni  Ni99  1  0.08333333  0.16666667  0.06250000  1.0
  Ni  Ni100  1  0.08333333  0.50000000  0.06250000  1.0
  Ni  Ni101  1  0.08333333  0.83333333  0.06250000  1.0
  Ni  Ni102  1  0.41666667  0.16666667  0.06250000  1.0
  Ni  Ni103  1  0.41666667  0.50000000  0.06250000  1.0
  Ni  Ni104  1  0.41666667  0.83333333  0.06250000  1.0
  Ni  Ni105  1  0.75000000  0.16666667  0.06250000  1.0
  Ni  Ni106  1  0.75000000  0.50000000  0.06250000  1.0
  Ni  Ni107  1  0.75000000  0.83333333  0.06250000  1.0
  Zr  Zr108  1  0.22102000  0.13768667  0.07958429  1.0
  Zr  Zr109  1  0.22102000  0.47102000  0.07958429  1.0
  Zr  Zr110  1  0.22102000  0.80435333  0.07958429  1.0
  Zr  Zr111  1  0.55435333  0.13768667  0.07958429  1.0
  Zr  Zr112  1  0.55435333  0.47102000  0.07958429  1.0
  Zr  Zr113  1  0.55435333  0.80435333  0.07958429  1.0
  Zr  Zr114  1  0.88768667  0.13768667  0.07958429  1.0
  Zr  Zr115  1  0.88768667  0.47102000  0.07958429  1.0
  Zr  Zr116  1  0.88768667  0.80435333  0.07958429  1.0
  Zr  Zr117  1  0.22102000  0.30435333  0.11529857  1.0
  Zr  Zr118  1  0.22102000  0.63768667  0.11529857  1.0
  Zr  Zr119  1  0.22102000  0.97102000  0.11529857  1.0
  Zr  Zr120  1  0.55435333  0.30435333  0.11529857  1.0
  Zr  Zr121  1  0.55435333  0.63768667  0.11529857  1.0
  Zr  Zr122  1  0.55435333  0.97102000  0.11529857  1.0
  Zr  Zr123  1  0.88768667  0.30435333  0.11529857  1.0
  Zr  Zr124  1  0.88768667  0.63768667  0.11529857  1.0
  Zr  Zr125  1  0.88768667  0.97102000  0.11529857  1.0
  Zr  Zr126  1  0.11231333  0.02898000  0.08113000  1.0
  Zr  Zr127  1  0.11231333  0.36231333  0.08113000  1.0
  Zr  Zr128  1  0.11231333  0.69564667  0.08113000  1.0
  Zr  Zr129  1  0.44564667  0.02898000  0.08113000  1.0
  Zr  Zr130  1  0.44564667  0.36231333  0.08113000  1.0
  Zr  Zr131  1  0.44564667  0.69564667  0.08113000  1.0
  Zr  Zr132  1  0.77898000  0.02898000  0.08113000  1.0
  Zr  Zr133  1  0.77898000  0.36231333  0.08113000  1.0
  Zr  Zr134  1  0.77898000  0.69564667  0.08113000  1.0
  Zr  Zr135  1  0.11231333  0.19564667  0.11684429  1.0
  Zr  Zr136  1  0.11231333  0.52898000  0.11684429  1.0
  Zr  Zr137  1  0.11231333  0.86231333  0.11684429  1.0
  Zr  Zr138  1  0.44564667  0.19564667  0.11684429  1.0
  Zr  Zr139  1  0.44564667  0.52898000  0.11684429  1.0
  Zr  Zr140  1  0.44564667  0.86231333  0.11684429  1.0
  Zr  Zr141  1  0.77898000  0.19564667  0.11684429  1.0
  Zr  Zr142  1  0.77898000  0.52898000  0.11684429  1.0
  Zr  Zr143  1  0.77898000  0.86231333  0.11684429  1.0
  Zr  Zr144  1  0.27898000  0.08333333  0.11607143  1.0
  Zr  Zr145  1  0.27898000  0.41666667  0.11607143  1.0
  Zr  Zr146  1  0.27898000  0.75000000  0.11607143  1.0
  Zr  Zr147  1  0.61231333  0.08333333  0.11607143  1.0
  Zr  Zr148  1  0.61231333  0.41666667  0.11607143  1.0
  Zr  Zr149  1  0.61231333  0.75000000  0.11607143  1.0
  Zr  Zr150  1  0.94564667  0.08333333  0.11607143  1.0
  Zr  Zr151  1  0.94564667  0.41666667  0.11607143  1.0
  Zr  Zr152  1  0.94564667  0.75000000  0.11607143  1.0
  Zr  Zr153  1  0.27898000  0.25000000  0.08035714  1.0
  Zr  Zr154  1  0.27898000  0.58333333  0.08035714  1.0
  Zr  Zr155  1  0.27898000  0.91666667  0.08035714  1.0
  Zr  Zr156  1  0.61231333  0.25000000  0.08035714  1.0
  Zr  Zr157  1  0.61231333  0.58333333  0.08035714  1.0
  Zr  Zr158  1  0.61231333  0.91666667  0.08035714  1.0
  Zr  Zr159  1  0.94564667  0.25000000  0.08035714  1.0
  Zr  Zr160  1  0.94564667  0.58333333  0.08035714  1.0
  Zr  Zr161  1  0.94564667  0.91666667  0.08035714  1.0
  Zr  Zr162  1  0.05435333  0.08333333  0.11607143  1.0
  Zr  Zr163  1  0.05435333  0.41666667  0.11607143  1.0
  Zr  Zr164  1  0.05435333  0.75000000  0.11607143  1.0
  Zr  Zr165  1  0.38768667  0.08333333  0.11607143  1.0
  Zr  Zr166  1  0.38768667  0.41666667  0.11607143  1.0
  Zr  Zr167  1  0.38768667  0.75000000  0.11607143  1.0
  Zr  Zr168  1  0.72102000  0.08333333  0.11607143  1.0
  Zr  Zr169  1  0.72102000  0.41666667  0.11607143  1.0
  Zr  Zr170  1  0.72102000  0.75000000  0.11607143  1.0
  Zr  Zr171  1  0.05435333  0.25000000  0.08035714  1.0
  Zr  Zr172  1  0.05435333  0.58333333  0.08035714  1.0
  Zr  Zr173  1  0.05435333  0.91666667  0.08035714  1.0
  Zr  Zr174  1  0.38768667  0.25000000  0.08035714  1.0
  Zr  Zr175  1  0.38768667  0.58333333  0.08035714  1.0
  Zr  Zr176  1  0.38768667  0.91666667  0.08035714  1.0
  Zr  Zr177  1  0.72102000  0.25000000  0.08035714  1.0
  Zr  Zr178  1  0.72102000  0.58333333  0.08035714  1.0
  Zr  Zr179  1  0.72102000  0.91666667  0.08035714  1.0
  Ni  Ni180  1  0.25000000  0.33333333  0.09821429  1.0
  Ni  Ni181  1  0.25000000  0.66666667  0.09821429  1.0
  Ni  Ni182  1  0.25000000  0.00000000  0.09821429  1.0
  Ni  Ni183  1  0.58333333  0.33333333  0.09821429  1.0
  Ni  Ni184  1  0.58333333  0.66666667  0.09821429  1.0
  Ni  Ni185  1  0.58333333  1.00000000  0.09821429  1.0
  Ni  Ni186  1  0.91666667  0.33333333  0.09821429  1.0
  Ni  Ni187  1  0.91666667  0.66666667  0.09821429  1.0
  Ni  Ni188  1  0.91666667  1.00000000  0.09821429  1.0
  Ni  Ni189  1  0.25000000  0.16666667  0.13392857  1.0
  Ni  Ni190  1  0.25000000  0.50000000  0.13392857  1.0
  Ni  Ni191  1  0.25000000  0.83333333  0.13392857  1.0
  Ni  Ni192  1  0.58333333  0.16666667  0.13392857  1.0
  Ni  Ni193  1  0.58333333  0.50000000  0.13392857  1.0
  Ni  Ni194  1  0.58333333  0.83333333  0.13392857  1.0
  Ni  Ni195  1  0.91666667  0.16666667  0.13392857  1.0
  Ni  Ni196  1  0.91666667  0.50000000  0.13392857  1.0
  Ni  Ni197  1  0.91666667  0.83333333  0.13392857  1.0
  Ni  Ni198  1  0.08333333  0.00000000  0.09821429  1.0
  Ni  Ni199  1  0.08333333  0.33333333  0.09821429  1.0
  Ni  Ni200  1  0.08333333  0.66666667  0.09821429  1.0
  Ni  Ni201  1  0.41666667  0.00000000  0.09821429  1.0
  Ni  Ni202  1  0.41666667  0.33333333  0.09821429  1.0
  Ni  Ni203  1  0.41666667  0.66666667  0.09821429  1.0
  Ni  Ni204  1  0.75000000  1.00000000  0.09821429  1.0
  Ni  Ni205  1  0.75000000  0.33333333  0.09821429  1.0
  Ni  Ni206  1  0.75000000  0.66666667  0.09821429  1.0
  Ni  Ni207  1  0.08333333  0.16666667  0.13392857  1.0
  Ni  Ni208  1  0.08333333  0.50000000  0.13392857  1.0
  Ni  Ni209  1  0.08333333  0.83333333  0.13392857  1.0
  Ni  Ni210  1  0.41666667  0.16666667  0.13392857  1.0
  Ni  Ni211  1  0.41666667  0.50000000  0.13392857  1.0
  Ni  Ni212  1  0.41666667  0.83333333  0.13392857  1.0
  Ni  Ni213  1  0.75000000  0.16666667  0.13392857  1.0
  Ni  Ni214  1  0.75000000  0.50000000  0.13392857  1.0
  Ni  Ni215  1  0.75000000  0.83333333  0.13392857  1.0
  Zr  Zr216  1  0.22102000  0.13768667  0.15101286  1.0
  Zr  Zr217  1  0.22102000  0.47102000  0.15101286  1.0
  Zr  Zr218  1  0.22102000  0.80435333  0.15101286  1.0
  Zr  Zr219  1  0.55435333  0.13768667  0.15101286  1.0
  Zr  Zr220  1  0.55435333  0.47102000  0.15101286  1.0
  Zr  Zr221  1  0.55435333  0.80435333  0.15101286  1.0
  Zr  Zr222  1  0.88768667  0.13768667  0.15101286  1.0
  Zr  Zr223  1  0.88768667  0.47102000  0.15101286  1.0
  Zr  Zr224  1  0.88768667  0.80435333  0.15101286  1.0
  Zr  Zr225  1  0.22102000  0.30435333  0.18672714  1.0
  Zr  Zr226  1  0.22102000  0.63768667  0.18672714  1.0
  Zr  Zr227  1  0.22102000  0.97102000  0.18672714  1.0
  Zr  Zr228  1  0.55435333  0.30435333  0.18672714  1.0
  Zr  Zr229  1  0.55435333  0.63768667  0.18672714  1.0
  Zr  Zr230  1  0.55435333  0.97102000  0.18672714  1.0
  Zr  Zr231  1  0.88768667  0.30435333  0.18672714  1.0
  Zr  Zr232  1  0.88768667  0.63768667  0.18672714  1.0
  Zr  Zr233  1  0.88768667  0.97102000  0.18672714  1.0
  Zr  Zr234  1  0.11231333  0.02898000  0.15255857  1.0
  Zr  Zr235  1  0.11231333  0.36231333  0.15255857  1.0
  Zr  Zr236  1  0.11231333  0.69564667  0.15255857  1.0
  Zr  Zr237  1  0.44564667  0.02898000  0.15255857  1.0
  Zr  Zr238  1  0.44564667  0.36231333  0.15255857  1.0
  Zr  Zr239  1  0.44564667  0.69564667  0.15255857  1.0
  Zr  Zr240  1  0.77898000  0.02898000  0.15255857  1.0
  Zr  Zr241  1  0.77898000  0.36231333  0.15255857  1.0
  Zr  Zr242  1  0.77898000  0.69564667  0.15255857  1.0
  Zr  Zr243  1  0.11231333  0.19564667  0.18827286  1.0
  Zr  Zr244  1  0.11231333  0.52898000  0.18827286  1.0
  Zr  Zr245  1  0.11231333  0.86231333  0.18827286  1.0
  Zr  Zr246  1  0.44564667  0.19564667  0.18827286  1.0
  Zr  Zr247  1  0.44564667  0.52898000  0.18827286  1.0
  Zr  Zr248  1  0.44564667  0.86231333  0.18827286  1.0
  Zr  Zr249  1  0.77898000  0.19564667  0.18827286  1.0
  Zr  Zr250  1  0.77898000  0.52898000  0.18827286  1.0
  Zr  Zr251  1  0.77898000  0.86231333  0.18827286  1.0
  Zr  Zr252  1  0.27898000  0.08333333  0.18750000  1.0
  Zr  Zr253  1  0.27898000  0.41666667  0.18750000  1.0
  Zr  Zr254  1  0.27898000  0.75000000  0.18750000  1.0
  Zr  Zr255  1  0.61231333  0.08333333  0.18750000  1.0
  Zr  Zr256  1  0.61231333  0.41666667  0.18750000  1.0
  Zr  Zr257  1  0.61231333  0.75000000  0.18750000  1.0
  Zr  Zr258  1  0.94564667  0.08333333  0.18750000  1.0
  Zr  Zr259  1  0.94564667  0.41666667  0.18750000  1.0
  Zr  Zr260  1  0.94564667  0.75000000  0.18750000  1.0
  Zr  Zr261  1  0.27898000  0.25000000  0.15178571  1.0
  Zr  Zr262  1  0.27898000  0.58333333  0.15178571  1.0
  Zr  Zr263  1  0.27898000  0.91666667  0.15178571  1.0
  Zr  Zr264  1  0.61231333  0.25000000  0.15178571  1.0
  Zr  Zr265  1  0.61231333  0.58333333  0.15178571  1.0
  Zr  Zr266  1  0.61231333  0.91666667  0.15178571  1.0
  Zr  Zr267  1  0.94564667  0.25000000  0.15178571  1.0
  Zr  Zr268  1  0.94564667  0.58333333  0.15178571  1.0
  Zr  Zr269  1  0.94564667  0.91666667  0.15178571  1.0
  Zr  Zr270  1  0.05435333  0.08333333  0.18750000  1.0
  Zr  Zr271  1  0.05435333  0.41666667  0.18750000  1.0
  Zr  Zr272  1  0.05435333  0.75000000  0.18750000  1.0
  Zr  Zr273  1  0.38768667  0.08333333  0.18750000  1.0
  Zr  Zr274  1  0.38768667  0.41666667  0.18750000  1.0
  Zr  Zr275  1  0.38768667  0.75000000  0.18750000  1.0
  Zr  Zr276  1  0.72102000  0.08333333  0.18750000  1.0
  Zr  Zr277  1  0.72102000  0.41666667  0.18750000  1.0
  Zr  Zr278  1  0.72102000  0.75000000  0.18750000  1.0
  Zr  Zr279  1  0.05435333  0.25000000  0.15178571  1.0
  Zr  Zr280  1  0.05435333  0.58333333  0.15178571  1.0
  Zr  Zr281  1  0.05435333  0.91666667  0.15178571  1.0
  Zr  Zr282  1  0.38768667  0.25000000  0.15178571  1.0
  Zr  Zr283  1  0.38768667  0.58333333  0.15178571  1.0
  Zr  Zr284  1  0.38768667  0.91666667  0.15178571  1.0
  Zr  Zr285  1  0.72102000  0.25000000  0.15178571  1.0
  Zr  Zr286  1  0.72102000  0.58333333  0.15178571  1.0
  Zr  Zr287  1  0.72102000  0.91666667  0.15178571  1.0
  Ni  Ni288  1  0.25000000  0.33333333  0.16964286  1.0
  Ni  Ni289  1  0.25000000  0.66666667  0.16964286  1.0
  Ni  Ni290  1  0.25000000  0.00000000  0.16964286  1.0
  Ni  Ni291  1  0.58333333  0.33333333  0.16964286  1.0
  Ni  Ni292  1  0.58333333  0.66666667  0.16964286  1.0
  Ni  Ni293  1  0.58333333  1.00000000  0.16964286  1.0
  Ni  Ni294  1  0.91666667  0.33333333  0.16964286  1.0
  Ni  Ni295  1  0.91666667  0.66666667  0.16964286  1.0
  Ni  Ni296  1  0.91666667  1.00000000  0.16964286  1.0
  Ni  Ni297  1  0.25000000  0.16666667  0.20535714  1.0
  Ni  Ni298  1  0.25000000  0.50000000  0.20535714  1.0
  Ni  Ni299  1  0.25000000  0.83333333  0.20535714  1.0
  Ni  Ni300  1  0.58333333  0.16666667  0.20535714  1.0
  Ni  Ni301  1  0.58333333  0.50000000  0.20535714  1.0
  Ni  Ni302  1  0.58333333  0.83333333  0.20535714  1.0
  Ni  Ni303  1  0.91666667  0.16666667  0.20535714  1.0
  Ni  Ni304  1  0.91666667  0.50000000  0.20535714  1.0
  Ni  Ni305  1  0.91666667  0.83333333  0.20535714  1.0
  Ni  Ni306  1  0.08333333  0.00000000  0.16964286  1.0
  Ni  Ni307  1  0.08333333  0.33333333  0.16964286  1.0
  Ni  Ni308  1  0.08333333  0.66666667  0.16964286  1.0
  Ni  Ni309  1  0.41666667  0.00000000  0.16964286  1.0
  Ni  Ni310  1  0.41666667  0.33333333  0.16964286  1.0
  Ni  Ni311  1  0.41666667  0.66666667  0.16964286  1.0
  Ni  Ni312  1  0.75000000  1.00000000  0.16964286  1.0
  Ni  Ni313  1  0.75000000  0.33333333  0.16964286  1.0
  Ni  Ni314  1  0.75000000  0.66666667  0.16964286  1.0
  Ni  Ni315  1  0.08333333  0.16666667  0.20535714  1.0
  Ni  Ni316  1  0.08333333  0.50000000  0.20535714  1.0
  Ni  Ni317  1  0.08333333  0.83333333  0.20535714  1.0
  Ni  Ni318  1  0.41666667  0.16666667  0.20535714  1.0
  Ni  Ni319  1  0.41666667  0.50000000  0.20535714  1.0
  Ni  Ni320  1  0.41666667  0.83333333  0.20535714  1.0
  Ni  Ni321  1  0.75000000  0.16666667  0.20535714  1.0
  Ni  Ni322  1  0.75000000  0.50000000  0.20535714  1.0
  Ni  Ni323  1  0.75000000  0.83333333  0.20535714  1.0
  Zr  Zr324  1  0.22102000  0.13768667  0.22244143  1.0
  Zr  Zr325  1  0.22102000  0.47102000  0.22244143  1.0
  Zr  Zr326  1  0.22102000  0.80435333  0.22244143  1.0
  Zr  Zr327  1  0.55435333  0.13768667  0.22244143  1.0
  Zr  Zr328  1  0.55435333  0.47102000  0.22244143  1.0
  Zr  Zr329  1  0.55435333  0.80435333  0.22244143  1.0
  Zr  Zr330  1  0.88768667  0.13768667  0.22244143  1.0
  Zr  Zr331  1  0.88768667  0.47102000  0.22244143  1.0
  Zr  Zr332  1  0.88768667  0.80435333  0.22244143  1.0
  Zr  Zr333  1  0.22102000  0.30435333  0.25815571  1.0
  Zr  Zr334  1  0.22102000  0.63768667  0.25815571  1.0
  Zr  Zr335  1  0.22102000  0.97102000  0.25815571  1.0
  Zr  Zr336  1  0.55435333  0.30435333  0.25815571  1.0
  Zr  Zr337  1  0.55435333  0.63768667  0.25815571  1.0
  Zr  Zr338  1  0.55435333  0.97102000  0.25815571  1.0
  Zr  Zr339  1  0.88768667  0.30435333  0.25815571  1.0
  Zr  Zr340  1  0.88768667  0.63768667  0.25815571  1.0
  Zr  Zr341  1  0.88768667  0.97102000  0.25815571  1.0
  Zr  Zr342  1  0.11231333  0.02898000  0.22398714  1.0
  Zr  Zr343  1  0.11231333  0.36231333  0.22398714  1.0
  Zr  Zr344  1  0.11231333  0.69564667  0.22398714  1.0
  Zr  Zr345  1  0.44564667  0.02898000  0.22398714  1.0
  Zr  Zr346  1  0.44564667  0.36231333  0.22398714  1.0
  Zr  Zr347  1  0.44564667  0.69564667  0.22398714  1.0
  Zr  Zr348  1  0.77898000  0.02898000  0.22398714  1.0
  Zr  Zr349  1  0.77898000  0.36231333  0.22398714  1.0
  Zr  Zr350  1  0.77898000  0.69564667  0.22398714  1.0
  Zr  Zr351  1  0.11231333  0.19564667  0.25970143  1.0
  Zr  Zr352  1  0.11231333  0.52898000  0.25970143  1.0
  Zr  Zr353  1  0.11231333  0.86231333  0.25970143  1.0
  Zr  Zr354  1  0.44564667  0.19564667  0.25970143  1.0
  Zr  Zr355  1  0.44564667  0.52898000  0.25970143  1.0
  Zr  Zr356  1  0.44564667  0.86231333  0.25970143  1.0
  Zr  Zr357  1  0.77898000  0.19564667  0.25970143  1.0
  Zr  Zr358  1  0.77898000  0.52898000  0.25970143  1.0
  Zr  Zr359  1  0.77898000  0.86231333  0.25970143  1.0
  Zr  Zr360  1  0.27898000  0.08333333  0.25892857  1.0
  Zr  Zr361  1  0.27898000  0.41666667  0.25892857  1.0
  Zr  Zr362  1  0.27898000  0.75000000  0.25892857  1.0
  Zr  Zr363  1  0.61231333  0.08333333  0.25892857  1.0
  Zr  Zr364  1  0.61231333  0.41666667  0.25892857  1.0
  Zr  Zr365  1  0.61231333  0.75000000  0.25892857  1.0
  Zr  Zr366  1  0.94564667  0.08333333  0.25892857  1.0
  Zr  Zr367  1  0.94564667  0.41666667  0.25892857  1.0
  Zr  Zr368  1  0.94564667  0.75000000  0.25892857  1.0
  Zr  Zr369  1  0.27898000  0.25000000  0.22321429  1.0
  Zr  Zr370  1  0.27898000  0.58333333  0.22321429  1.0
  Zr  Zr371  1  0.27898000  0.91666667  0.22321429  1.0
  Zr  Zr372  1  0.61231333  0.25000000  0.22321429  1.0
  Zr  Zr373  1  0.61231333  0.58333333  0.22321429  1.0
  Zr  Zr374  1  0.61231333  0.91666667  0.22321429  1.0
  Zr  Zr375  1  0.94564667  0.25000000  0.22321429  1.0
  Zr  Zr376  1  0.94564667  0.58333333  0.22321429  1.0
  Zr  Zr377  1  0.94564667  0.91666667  0.22321429  1.0
  Zr  Zr378  1  0.05435333  0.08333333  0.25892857  1.0
  Zr  Zr379  1  0.05435333  0.41666667  0.25892857  1.0
  Zr  Zr380  1  0.05435333  0.75000000  0.25892857  1.0
  Zr  Zr381  1  0.38768667  0.08333333  0.25892857  1.0
  Zr  Zr382  1  0.38768667  0.41666667  0.25892857  1.0
  Zr  Zr383  1  0.38768667  0.75000000  0.25892857  1.0
  Zr  Zr384  1  0.72102000  0.08333333  0.25892857  1.0
  Zr  Zr385  1  0.72102000  0.41666667  0.25892857  1.0
  Zr  Zr386  1  0.72102000  0.75000000  0.25892857  1.0
  Zr  Zr387  1  0.05435333  0.25000000  0.22321429  1.0
  Zr  Zr388  1  0.05435333  0.58333333  0.22321429  1.0
  Zr  Zr389  1  0.05435333  0.91666667  0.22321429  1.0
  Zr  Zr390  1  0.38768667  0.25000000  0.22321429  1.0
  Zr  Zr391  1  0.38768667  0.58333333  0.22321429  1.0
  Zr  Zr392  1  0.38768667  0.91666667  0.22321429  1.0
  Zr  Zr393  1  0.72102000  0.25000000  0.22321429  1.0
  Zr  Zr394  1  0.72102000  0.58333333  0.22321429  1.0
  Zr  Zr395  1  0.72102000  0.91666667  0.22321429  1.0
  Ni  Ni396  1  0.25000000  0.33333333  0.24107143  1.0
  Ni  Ni397  1  0.25000000  0.66666667  0.24107143  1.0
  Ni  Ni398  1  0.25000000  0.00000000  0.24107143  1.0
  Ni  Ni399  1  0.58333333  0.33333333  0.24107143  1.0
  Ni  Ni400  1  0.58333333  0.66666667  0.24107143  1.0
  Ni  Ni401  1  0.58333333  1.00000000  0.24107143  1.0
  Ni  Ni402  1  0.91666667  0.33333333  0.24107143  1.0
  Ni  Ni403  1  0.91666667  0.66666667  0.24107143  1.0
  Ni  Ni404  1  0.91666667  1.00000000  0.24107143  1.0
  Ni  Ni405  1  0.25000000  0.16666667  0.27678571  1.0
  Ni  Ni406  1  0.25000000  0.50000000  0.27678571  1.0
  Ni  Ni407  1  0.25000000  0.83333333  0.27678571  1.0
  Ni  Ni408  1  0.58333333  0.16666667  0.27678571  1.0
  Ni  Ni409  1  0.58333333  0.50000000  0.27678571  1.0
  Ni  Ni410  1  0.58333333  0.83333333  0.27678571  1.0
  Ni  Ni411  1  0.91666667  0.16666667  0.27678571  1.0
  Ni  Ni412  1  0.91666667  0.50000000  0.27678571  1.0
  Ni  Ni413  1  0.91666667  0.83333333  0.27678571  1.0
  Ni  Ni414  1  0.08333333  0.00000000  0.24107143  1.0
  Ni  Ni415  1  0.08333333  0.33333333  0.24107143  1.0
  Ni  Ni416  1  0.08333333  0.66666667  0.24107143  1.0
  Ni  Ni417  1  0.41666667  0.00000000  0.24107143  1.0
  Ni  Ni418  1  0.41666667  0.33333333  0.24107143  1.0
  Ni  Ni419  1  0.41666667  0.66666667  0.24107143  1.0
  Ni  Ni420  1  0.75000000  1.00000000  0.24107143  1.0
  Ni  Ni421  1  0.75000000  0.33333333  0.24107143  1.0
  Ni  Ni422  1  0.75000000  0.66666667  0.24107143  1.0
  Ni  Ni423  1  0.08333333  0.16666667  0.27678571  1.0
  Ni  Ni424  1  0.08333333  0.50000000  0.27678571  1.0
  Ni  Ni425  1  0.08333333  0.83333333  0.27678571  1.0
  Ni  Ni426  1  0.41666667  0.16666667  0.27678571  1.0
  Ni  Ni427  1  0.41666667  0.50000000  0.27678571  1.0
  Ni  Ni428  1  0.41666667  0.83333333  0.27678571  1.0
  Ni  Ni429  1  0.75000000  0.16666667  0.27678571  1.0
  Ni  Ni430  1  0.75000000  0.50000000  0.27678571  1.0
  Ni  Ni431  1  0.75000000  0.83333333  0.27678571  1.0
  Zr  Zr432  1  0.22102000  0.13768667  0.29387000  1.0
  Zr  Zr433  1  0.22102000  0.47102000  0.29387000  1.0
  Zr  Zr434  1  0.22102000  0.80435333  0.29387000  1.0
  Zr  Zr435  1  0.55435333  0.13768667  0.29387000  1.0
  Zr  Zr436  1  0.55435333  0.47102000  0.29387000  1.0
  Zr  Zr437  1  0.55435333  0.80435333  0.29387000  1.0
  Zr  Zr438  1  0.88768667  0.13768667  0.29387000  1.0
  Zr  Zr439  1  0.88768667  0.47102000  0.29387000  1.0
  Zr  Zr440  1  0.88768667  0.80435333  0.29387000  1.0
  Zr  Zr441  1  0.22102000  0.30435333  0.32958429  1.0
  Zr  Zr442  1  0.22102000  0.63768667  0.32958429  1.0
  Zr  Zr443  1  0.22102000  0.97102000  0.32958429  1.0
  Zr  Zr444  1  0.55435333  0.30435333  0.32958429  1.0
  Zr  Zr445  1  0.55435333  0.63768667  0.32958429  1.0
  Zr  Zr446  1  0.55435333  0.97102000  0.32958429  1.0
  Zr  Zr447  1  0.88768667  0.30435333  0.32958429  1.0
  Zr  Zr448  1  0.88768667  0.63768667  0.32958429  1.0
  Zr  Zr449  1  0.88768667  0.97102000  0.32958429  1.0
  Zr  Zr450  1  0.11231333  0.02898000  0.29541571  1.0
  Zr  Zr451  1  0.11231333  0.36231333  0.29541571  1.0
  Zr  Zr452  1  0.11231333  0.69564667  0.29541571  1.0
  Zr  Zr453  1  0.44564667  0.02898000  0.29541571  1.0
  Zr  Zr454  1  0.44564667  0.36231333  0.29541571  1.0
  Zr  Zr455  1  0.44564667  0.69564667  0.29541571  1.0
  Zr  Zr456  1  0.77898000  0.02898000  0.29541571  1.0
  Zr  Zr457  1  0.77898000  0.36231333  0.29541571  1.0
  Zr  Zr458  1  0.77898000  0.69564667  0.29541571  1.0
  Zr  Zr459  1  0.11231333  0.19564667  0.33113000  1.0
  Zr  Zr460  1  0.11231333  0.52898000  0.33113000  1.0
  Zr  Zr461  1  0.11231333  0.86231333  0.33113000  1.0
  Zr  Zr462  1  0.44564667  0.19564667  0.33113000  1.0
  Zr  Zr463  1  0.44564667  0.52898000  0.33113000  1.0
  Zr  Zr464  1  0.44564667  0.86231333  0.33113000  1.0
  Zr  Zr465  1  0.77898000  0.19564667  0.33113000  1.0
  Zr  Zr466  1  0.77898000  0.52898000  0.33113000  1.0
  Zr  Zr467  1  0.77898000  0.86231333  0.33113000  1.0
  Zr  Zr468  1  0.27898000  0.08333333  0.33035714  1.0
  Zr  Zr469  1  0.27898000  0.41666667  0.33035714  1.0
  Zr  Zr470  1  0.27898000  0.75000000  0.33035714  1.0
  Zr  Zr471  1  0.61231333  0.08333333  0.33035714  1.0
  Zr  Zr472  1  0.61231333  0.41666667  0.33035714  1.0
  Zr  Zr473  1  0.61231333  0.75000000  0.33035714  1.0
  Zr  Zr474  1  0.94564667  0.08333333  0.33035714  1.0
  Zr  Zr475  1  0.94564667  0.41666667  0.33035714  1.0
  Zr  Zr476  1  0.94564667  0.75000000  0.33035714  1.0
  Zr  Zr477  1  0.27898000  0.25000000  0.29464286  1.0
  Zr  Zr478  1  0.27898000  0.58333333  0.29464286  1.0
  Zr  Zr479  1  0.27898000  0.91666667  0.29464286  1.0
  Zr  Zr480  1  0.61231333  0.25000000  0.29464286  1.0
  Zr  Zr481  1  0.61231333  0.58333333  0.29464286  1.0
  Zr  Zr482  1  0.61231333  0.91666667  0.29464286  1.0
  Zr  Zr483  1  0.94564667  0.25000000  0.29464286  1.0
  Zr  Zr484  1  0.94564667  0.58333333  0.29464286  1.0
  Zr  Zr485  1  0.94564667  0.91666667  0.29464286  1.0
  Zr  Zr486  1  0.05435333  0.08333333  0.33035714  1.0
  Zr  Zr487  1  0.05435333  0.41666667  0.33035714  1.0
  Zr  Zr488  1  0.05435333  0.75000000  0.33035714  1.0
  Zr  Zr489  1  0.38768667  0.08333333  0.33035714  1.0
  Zr  Zr490  1  0.38768667  0.41666667  0.33035714  1.0
  Zr  Zr491  1  0.38768667  0.75000000  0.33035714  1.0
  Zr  Zr492  1  0.72102000  0.08333333  0.33035714  1.0
  Zr  Zr493  1  0.72102000  0.41666667  0.33035714  1.0
  Zr  Zr494  1  0.72102000  0.75000000  0.33035714  1.0
  Zr  Zr495  1  0.05435333  0.25000000  0.29464286  1.0
  Zr  Zr496  1  0.05435333  0.58333333  0.29464286  1.0
  Zr  Zr497  1  0.05435333  0.91666667  0.29464286  1.0
  Zr  Zr498  1  0.38768667  0.25000000  0.29464286  1.0
  Zr  Zr499  1  0.38768667  0.58333333  0.29464286  1.0
  Zr  Zr500  1  0.38768667  0.91666667  0.29464286  1.0
  Zr  Zr501  1  0.72102000  0.25000000  0.29464286  1.0
  Zr  Zr502  1  0.72102000  0.58333333  0.29464286  1.0
  Zr  Zr503  1  0.72102000  0.91666667  0.29464286  1.0
  Ni  Ni504  1  0.25000000  0.33333333  0.31250000  1.0
  Ni  Ni505  1  0.25000000  0.66666667  0.31250000  1.0
  Ni  Ni506  1  0.25000000  0.00000000  0.31250000  1.0
  Ni  Ni507  1  0.58333333  0.33333333  0.31250000  1.0
  Ni  Ni508  1  0.58333333  0.66666667  0.31250000  1.0
  Ni  Ni509  1  0.58333333  1.00000000  0.31250000  1.0
  Ni  Ni510  1  0.91666667  0.33333333  0.31250000  1.0
  Ni  Ni511  1  0.91666667  0.66666667  0.31250000  1.0
  Ni  Ni512  1  0.91666667  1.00000000  0.31250000  1.0
  Ni  Ni513  1  0.25000000  0.16666667  0.34821429  1.0
  Ni  Ni514  1  0.25000000  0.50000000  0.34821429  1.0
  Ni  Ni515  1  0.25000000  0.83333333  0.34821429  1.0
  Ni  Ni516  1  0.58333333  0.16666667  0.34821429  1.0
  Ni  Ni517  1  0.58333333  0.50000000  0.34821429  1.0
  Ni  Ni518  1  0.58333333  0.83333333  0.34821429  1.0
  Ni  Ni519  1  0.91666667  0.16666667  0.34821429  1.0
  Ni  Ni520  1  0.91666667  0.50000000  0.34821429  1.0
  Ni  Ni521  1  0.91666667  0.83333333  0.34821429  1.0
  Ni  Ni522  1  0.08333333  0.00000000  0.31250000  1.0
  Ni  Ni523  1  0.08333333  0.33333333  0.31250000  1.0
  Ni  Ni524  1  0.08333333  0.66666667  0.31250000  1.0
  Ni  Ni525  1  0.41666667  0.00000000  0.31250000  1.0
  Ni  Ni526  1  0.41666667  0.33333333  0.31250000  1.0
  Ni  Ni527  1  0.41666667  0.66666667  0.31250000  1.0
  Ni  Ni528  1  0.75000000  1.00000000  0.31250000  1.0
  Ni  Ni529  1  0.75000000  0.33333333  0.31250000  1.0
  Ni  Ni530  1  0.75000000  0.66666667  0.31250000  1.0
  Ni  Ni531  1  0.08333333  0.16666667  0.34821429  1.0
  Ni  Ni532  1  0.08333333  0.50000000  0.34821429  1.0
  Ni  Ni533  1  0.08333333  0.83333333  0.34821429  1.0
  Ni  Ni534  1  0.41666667  0.16666667  0.34821429  1.0
  Ni  Ni535  1  0.41666667  0.50000000  0.34821429  1.0
  Ni  Ni536  1  0.41666667  0.83333333  0.34821429  1.0
  Ni  Ni537  1  0.75000000  0.16666667  0.34821429  1.0
  Ni  Ni538  1  0.75000000  0.50000000  0.34821429  1.0
  Ni  Ni539  1  0.75000000  0.83333333  0.34821429  1.0
  Zr  Zr540  1  0.22102000  0.13768667  0.36529857  1.0
  Zr  Zr541  1  0.22102000  0.47102000  0.36529857  1.0
  Zr  Zr542  1  0.22102000  0.80435333  0.36529857  1.0
  Zr  Zr543  1  0.55435333  0.13768667  0.36529857  1.0
  Zr  Zr544  1  0.55435333  0.47102000  0.36529857  1.0
  Zr  Zr545  1  0.55435333  0.80435333  0.36529857  1.0
  Zr  Zr546  1  0.88768667  0.13768667  0.36529857  1.0
  Zr  Zr547  1  0.88768667  0.47102000  0.36529857  1.0
  Zr  Zr548  1  0.88768667  0.80435333  0.36529857  1.0
  Zr  Zr549  1  0.22102000  0.30435333  0.40101286  1.0
  Zr  Zr550  1  0.22102000  0.63768667  0.40101286  1.0
  Zr  Zr551  1  0.22102000  0.97102000  0.40101286  1.0
  Zr  Zr552  1  0.55435333  0.30435333  0.40101286  1.0
  Zr  Zr553  1  0.55435333  0.63768667  0.40101286  1.0
  Zr  Zr554  1  0.55435333  0.97102000  0.40101286  1.0
  Zr  Zr555  1  0.88768667  0.30435333  0.40101286  1.0
  Zr  Zr556  1  0.88768667  0.63768667  0.40101286  1.0
  Zr  Zr557  1  0.88768667  0.97102000  0.40101286  1.0
  Zr  Zr558  1  0.11231333  0.02898000  0.36684429  1.0
  Zr  Zr559  1  0.11231333  0.36231333  0.36684429  1.0
  Zr  Zr560  1  0.11231333  0.69564667  0.36684429  1.0
  Zr  Zr561  1  0.44564667  0.02898000  0.36684429  1.0
  Zr  Zr562  1  0.44564667  0.36231333  0.36684429  1.0
  Zr  Zr563  1  0.44564667  0.69564667  0.36684429  1.0
  Zr  Zr564  1  0.77898000  0.02898000  0.36684429  1.0
  Zr  Zr565  1  0.77898000  0.36231333  0.36684429  1.0
  Zr  Zr566  1  0.77898000  0.69564667  0.36684429  1.0
  Zr  Zr567  1  0.11231333  0.19564667  0.40255857  1.0
  Zr  Zr568  1  0.11231333  0.52898000  0.40255857  1.0
  Zr  Zr569  1  0.11231333  0.86231333  0.40255857  1.0
  Zr  Zr570  1  0.44564667  0.19564667  0.40255857  1.0
  Zr  Zr571  1  0.44564667  0.52898000  0.40255857  1.0
  Zr  Zr572  1  0.44564667  0.86231333  0.40255857  1.0
  Zr  Zr573  1  0.77898000  0.19564667  0.40255857  1.0
  Zr  Zr574  1  0.77898000  0.52898000  0.40255857  1.0
  Zr  Zr575  1  0.77898000  0.86231333  0.40255857  1.0
  Zr  Zr576  1  0.27898000  0.08333333  0.40178571  1.0
  Zr  Zr577  1  0.27898000  0.41666667  0.40178571  1.0
  Zr  Zr578  1  0.27898000  0.75000000  0.40178571  1.0
  Zr  Zr579  1  0.61231333  0.08333333  0.40178571  1.0
  Zr  Zr580  1  0.61231333  0.41666667  0.40178571  1.0
  Zr  Zr581  1  0.61231333  0.75000000  0.40178571  1.0
  Zr  Zr582  1  0.94564667  0.08333333  0.40178571  1.0
  Zr  Zr583  1  0.94564667  0.41666667  0.40178571  1.0
  Zr  Zr584  1  0.94564667  0.75000000  0.40178571  1.0
  Zr  Zr585  1  0.27898000  0.25000000  0.36607143  1.0
  Zr  Zr586  1  0.27898000  0.58333333  0.36607143  1.0
  Zr  Zr587  1  0.27898000  0.91666667  0.36607143  1.0
  Zr  Zr588  1  0.61231333  0.25000000  0.36607143  1.0
  Zr  Zr589  1  0.61231333  0.58333333  0.36607143  1.0
  Zr  Zr590  1  0.61231333  0.91666667  0.36607143  1.0
  Zr  Zr591  1  0.94564667  0.25000000  0.36607143  1.0
  Zr  Zr592  1  0.94564667  0.58333333  0.36607143  1.0
  Zr  Zr593  1  0.94564667  0.91666667  0.36607143  1.0
  Zr  Zr594  1  0.05435333  0.08333333  0.40178571  1.0
  Zr  Zr595  1  0.05435333  0.41666667  0.40178571  1.0
  Zr  Zr596  1  0.05435333  0.75000000  0.40178571  1.0
  Zr  Zr597  1  0.38768667  0.08333333  0.40178571  1.0
  Zr  Zr598  1  0.38768667  0.41666667  0.40178571  1.0
  Zr  Zr599  1  0.38768667  0.75000000  0.40178571  1.0
  Zr  Zr600  1  0.72102000  0.08333333  0.40178571  1.0
  Zr  Zr601  1  0.72102000  0.41666667  0.40178571  1.0
  Zr  Zr602  1  0.72102000  0.75000000  0.40178571  1.0
  Zr  Zr603  1  0.05435333  0.25000000  0.36607143  1.0
  Zr  Zr604  1  0.05435333  0.58333333  0.36607143  1.0
  Zr  Zr605  1  0.05435333  0.91666667  0.36607143  1.0
  Zr  Zr606  1  0.38768667  0.25000000  0.36607143  1.0
  Zr  Zr607  1  0.38768667  0.58333333  0.36607143  1.0
  Zr  Zr608  1  0.38768667  0.91666667  0.36607143  1.0
  Zr  Zr609  1  0.72102000  0.25000000  0.36607143  1.0
  Zr  Zr610  1  0.72102000  0.58333333  0.36607143  1.0
  Zr  Zr611  1  0.72102000  0.91666667  0.36607143  1.0
  Ni  Ni612  1  0.25000000  0.33333333  0.38392857  1.0
  Ni  Ni613  1  0.25000000  0.66666667  0.38392857  1.0
  Ni  Ni614  1  0.25000000  0.00000000  0.38392857  1.0
  Ni  Ni615  1  0.58333333  0.33333333  0.38392857  1.0
  Ni  Ni616  1  0.58333333  0.66666667  0.38392857  1.0
  Ni  Ni617  1  0.58333333  1.00000000  0.38392857  1.0
  Ni  Ni618  1  0.91666667  0.33333333  0.38392857  1.0
  Ni  Ni619  1  0.91666667  0.66666667  0.38392857  1.0
  Ni  Ni620  1  0.91666667  1.00000000  0.38392857  1.0
  Ni  Ni621  1  0.25000000  0.16666667  0.41964286  1.0
  Ni  Ni622  1  0.25000000  0.50000000  0.41964286  1.0
  Ni  Ni623  1  0.25000000  0.83333333  0.41964286  1.0
  Ni  Ni624  1  0.58333333  0.16666667  0.41964286  1.0
  Ni  Ni625  1  0.58333333  0.50000000  0.41964286  1.0
  Ni  Ni626  1  0.58333333  0.83333333  0.41964286  1.0
  Ni  Ni627  1  0.91666667  0.16666667  0.41964286  1.0
  Ni  Ni628  1  0.91666667  0.50000000  0.41964286  1.0
  Ni  Ni629  1  0.91666667  0.83333333  0.41964286  1.0
  Ni  Ni630  1  0.08333333  0.00000000  0.38392857  1.0
  Ni  Ni631  1  0.08333333  0.33333333  0.38392857  1.0
  Ni  Ni632  1  0.08333333  0.66666667  0.38392857  1.0
  Ni  Ni633  1  0.41666667  0.00000000  0.38392857  1.0
  Ni  Ni634  1  0.41666667  0.33333333  0.38392857  1.0
  Ni  Ni635  1  0.41666667  0.66666667  0.38392857  1.0
  Ni  Ni636  1  0.75000000  1.00000000  0.38392857  1.0
  Ni  Ni637  1  0.75000000  0.33333333  0.38392857  1.0
  Ni  Ni638  1  0.75000000  0.66666667  0.38392857  1.0
  Ni  Ni639  1  0.08333333  0.16666667  0.41964286  1.0
  Ni  Ni640  1  0.08333333  0.50000000  0.41964286  1.0
  Ni  Ni641  1  0.08333333  0.83333333  0.41964286  1.0
  Ni  Ni642  1  0.41666667  0.16666667  0.41964286  1.0
  Ni  Ni643  1  0.41666667  0.50000000  0.41964286  1.0
  Ni  Ni644  1  0.41666667  0.83333333  0.41964286  1.0
  Ni  Ni645  1  0.75000000  0.16666667  0.41964286  1.0
  Ni  Ni646  1  0.75000000  0.50000000  0.41964286  1.0
  Ni  Ni647  1  0.75000000  0.83333333  0.41964286  1.0
