# generated using pymatgen
data_Zr2Ni7
_symmetry_space_group_name_H-M   'P 1'
_cell_length_a   14.21199375
_cell_length_b   14.21199375
_cell_length_c   31.44745010
_cell_angle_alpha   82.12991339
_cell_angle_beta   97.87008661
_cell_angle_gamma   59.35718007
_symmetry_Int_Tables_number   1
_chemical_formula_structural   Zr2Ni7
_chemical_formula_sum   'Zr36 Ni126'
_cell_volume   5251.70144276
_cell_formula_units_Z   18
loop_
 _symmetry_equiv_pos_site_id
 _symmetry_equiv_pos_as_xyz
  1  'x, y, z'
loop_
 _atom_site_type_symbol
 _atom_site_label
 _atom_site_symmetry_multiplicity
 _atom_site_fract_x
 _atom_site_fract_y
 _atom_site_fract_z
 _atom_site_occupancy
  Zr  Zr0  1  0.20236300  0.13097033  0.15434140  1.0
  Zr  Zr1  1  0.20236300  0.46430367  0.15434140  1.0
  Zr  Zr2  1  0.20236300  0.79763700  0.15434140  1.0
  Zr  Zr3  1  0.53569633  0.13097033  0.15434140  1.0
  Zr  Zr4  1  0.53569633  0.46430367  0.15434140  1.0
  Zr  Zr5  1  0.53569633  0.79763700  0.15434140  1.0
  Zr  Zr6  1  0.86902967  0.13097033  0.15434140  1.0
  Zr  Zr7  1  0.86902967  0.46430367  0.15434140  1.0
  Zr  Zr8  1  0.86902967  0.79763700  0.15434140  1.0
  Zr  Zr9  1  0.13097033  0.20236300  0.04565860  1.0
  Zr  Zr10  1  0.13097033  0.53569633  0.04565860  1.0
  Zr  Zr11  1  0.13097033  0.86902967  0.04565860  1.0
  Zr  Zr12  1  0.46430367  0.20236300  0.04565860  1.0
  Zr  Zr13  1  0.46430367  0.53569633  0.04565860  1.0
  Zr  Zr14  1  0.46430367  0.86902967  0.04565860  1.0
  Zr  Zr15  1  0.79763700  0.20236300  0.04565860  1.0
  Zr  Zr16  1  0.79763700  0.53569633  0.04565860  1.0
  Zr  Zr17  1  0.79763700  0.86902967  0.04565860  1.0
  Ni  Ni18  1  0.00000000  0.00000000  0.10000000  1.0
  Ni  Ni19  1  0.00000000  0.33333333  0.10000000  1.0
  Ni  Ni20  1  0.00000000  0.66666667  0.10000000  1.0
  Ni  Ni21  1  0.33333333  0.00000000  0.10000000  1.0
  Ni  Ni22  1  0.33333333  0.33333333  0.10000000  1.0
  Ni  Ni23  1  0.33333333  0.66666667  0.10000000  1.0
  Ni  Ni24  1  0.66666667  0.00000000  0.10000000  1.0
  Ni  Ni25  1  0.66666667  0.33333333  0.10000000  1.0
  Ni  Ni26  1  0.66666667  0.66666667  0.10000000  1.0
  Ni  Ni27  1  0.32020833  0.23588500  0.16871820  1.0
  Ni  Ni28  1  0.32020833  0.56921833  0.16871820  1.0
  Ni  Ni29  1  0.32020833  0.90255167  0.16871820  1.0
  Ni  Ni30  1  0.65354167  0.23588500  0.16871820  1.0
  Ni  Ni31  1  0.65354167  0.56921833  0.16871820  1.0
  Ni  Ni32  1  0.65354167  0.90255167  0.16871820  1.0
  Ni  Ni33  1  0.98687500  0.23588500  0.16871820  1.0
  Ni  Ni34  1  0.98687500  0.56921833  0.16871820  1.0
  Ni  Ni35  1  0.98687500  0.90255167  0.16871820  1.0
  Ni  Ni36  1  0.23588500  0.32020833  0.03128180  1.0
  Ni  Ni37  1  0.23588500  0.65354167  0.03128180  1.0
  Ni  Ni38  1  0.23588500  0.98687500  0.03128180  1.0
  Ni  Ni39  1  0.56921833  0.32020833  0.03128180  1.0
  Ni  Ni40  1  0.56921833  0.65354167  0.03128180  1.0
  Ni  Ni41  1  0.56921833  0.98687500  0.03128180  1.0
  Ni  Ni42  1  0.90255167  0.32020833  0.03128180  1.0
  Ni  Ni43  1  0.90255167  0.65354167  0.03128180  1.0
  Ni  Ni44  1  0.90255167  0.98687500  0.03128180  1.0
  Ni  Ni45  1  0.01312500  0.09744833  0.03128180  1.0
  Ni  Ni46  1  0.01312500  0.43078167  0.03128180  1.0
  Ni  Ni47  1  0.01312500  0.76411500  0.03128180  1.0
  Ni  Ni48  1  0.34645833  0.09744833  0.03128180  1.0
  Ni  Ni49  1  0.34645833  0.43078167  0.03128180  1.0
  Ni  Ni50  1  0.34645833  0.76411500  0.03128180  1.0
  Ni  Ni51  1  0.67979167  0.09744833  0.03128180  1.0
  Ni  Ni52  1  0.67979167  0.43078167  0.03128180  1.0
  Ni  Ni53  1  0.67979167  0.76411500  0.03128180  1.0
  Ni  Ni54  1  0.09744833  0.01312500  0.16871820  1.0
  Ni  Ni55  1  0.09744833  0.34645833  0.16871820  1.0
  Ni  Ni56  1  0.09744833  0.67979167  0.16871820  1.0
  Ni  Ni57  1  0.43078167  0.01312500  0.16871820  1.0
  Ni  Ni58  1  0.43078167  0.34645833  0.16871820  1.0
  Ni  Ni59  1  0.43078167  0.67979167  0.16871820  1.0
  Ni  Ni60  1  0.76411500  0.01312500  0.16871820  1.0
  Ni  Ni61  1  0.76411500  0.34645833  0.16871820  1.0
  Ni  Ni62  1  0.76411500  0.67979167  0.16871820  1.0
  Ni  Ni63  1  0.00000000  0.16666667  0.10000000  1.0
  Ni  Ni64  1  0.00000000  0.50000000  0.10000000  1.0
  Ni  Ni65  1  0.00000000  0.83333333  0.10000000  1.0
  Ni  Ni66  1  0.33333333  0.16666667  0.10000000  1.0
  Ni  Ni67  1  0.33333333  0.50000000  0.10000000  1.0
  Ni  Ni68  1  0.33333333  0.83333333  0.10000000  1.0
  Ni  Ni69  1  0.66666667  0.16666667  0.10000000  1.0
  Ni  Ni70  1  0.66666667  0.50000000  0.10000000  1.0
  Ni  Ni71  1  0.66666667  0.83333333  0.10000000  1.0
  Ni  Ni72  1  0.16666667  0.00000000  0.10000000  1.0
  Ni  Ni73  1  0.16666667  0.33333333  0.10000000  1.0
  Ni  Ni74  1  0.16666667  0.66666667  0.10000000  1.0
  Ni  Ni75  1  0.50000000  0.00000000  0.10000000  1.0
  Ni  Ni76  1  0.50000000  0.33333333  0.10000000  1.0
  Ni  Ni77  1  0.50000000  0.66666667  0.10000000  1.0
  Ni  Ni78  1  0.83333333  0.00000000  0.10000000  1.0
  Ni  Ni79  1  0.83333333  0.33333333  0.10000000  1.0
  Ni  Ni80  1  0.83333333  0.66666667  0.10000000  1.0
  Zr  Zr81  1  0.20236300  0.13097033  0.35434140  1.0
  Zr  Zr82  1  0.20236300  0.46430367  0.35434140  1.0
  Zr  Zr83  1  0.20236300  0.79763700  0.35434140  1.0
  Zr  Zr84  1  0.53569633  0.13097033  0.35434140  1.0
  Zr  Zr85  1  0.53569633  0.46430367  0.35434140  1.0
  Zr  Zr86  1  0.53569633  0.79763700  0.35434140  1.0
  Zr  Zr87  1  0.86902967  0.13097033  0.35434140  1.0
  Zr  Zr88  1  0.86902967  0.46430367  0.35434140  1.0
  Zr  Zr89  1  0.86902967  0.79763700  0.35434140  1.0
  Zr  Zr90  1  0.13097033  0.20236300  0.24565860  1.0
  Zr  Zr91  1  0.13097033  0.53569633  0.24565860  1.0
  Zr  Zr92  1  0.13097033  0.86902967  0.24565860  1.0
  Zr  Zr93  1  0.46430367  0.20236300  0.24565860  1.0
  Zr  Zr94  1  0.46430367  0.53569633  0.24565860  1.0
  Zr  Zr95  1  0.46430367  0.86902967  0.24565860  1.0
  Zr  Zr96  1  0.79763700  0.20236300  0.24565860  1.0
  Zr  Zr97  1  0.79763700  0.53569633  0.24565860  1.0
  Zr  Zr98  1  0.79763700  0.86902967  0.24565860  1.0
  Ni  Ni99  1  0.00000000  0.00000000  0.30000000  1.0
  Ni  Ni100  1  0.00000000  0.33333333  0.30000000  1.0
  Ni  Ni101  1  0.00000000  0.66666667  0.30000000  1.0
  Ni  Ni102  1  0.33333333  0.00000000  0.30000000  1.0
  Ni  Ni103  1  0.33333333  0.33333333  0.30000000  1.0
  Ni  Ni104  1  0.33333333  0.66666667  0.30000000  1.0
  Ni  Ni105  1  0.66666667  0.00000000  0.30000000  1.0
  Ni  Ni106  1  0.66666667  0.33333333  0.30000000  1.0
  Ni  Ni107  1  0.66666667  0.66666667  0.30000000  1.0
  Ni  Ni108  1  0.32020833  0.23588500  0.36871820  1.0
  Ni  Ni109  1  0.32020833  0.56921833  0.36871820  1.0
  Ni  Ni110  1  0.32020833  0.90255167  0.36871820  1.0
  Ni  Ni111  1  0.65354167  0.23588500  0.36871820  1.0
  Ni  Ni112  1  0.65354167  0.56921833  0.36871820  1.0
  Ni  Ni113  1  0.65354167  0.90255167  0.36871820  1.0
  Ni  Ni114  1  0.98687500  0.23588500  0.36871820  1.0
  Ni  Ni115  1  0.98687500  0.56921833  0.36871820  1.0
  Ni  Ni116  1  0.98687500  0.90255167  0.36871820  1.0
  Ni  Ni117  1  0.23588500  0.32020833  0.23128180  1.0
  Ni  Ni118  1  0.23588500  0.65354167  0.23128180  1.0
  Ni  Ni119  1  0.23588500  0.98687500  0.23128180  1.0
  Ni  Ni120  1  0.56921833  0.32020833  0.23128180  1.0
  Ni  Ni121  1  0.56921833  0.65354167  0.23128180  1.0
  Ni  Ni122  1  0.56921833  0.98687500  0.23128180  1.0
  Ni  Ni123  1  0.90255167  0.32020833  0.23128180  1.0
  Ni  Ni124  1  0.90255167  0.65354167  0.23128180  1.0
  Ni  Ni125  1  0.90255167  0.98687500  0.23128180  1.0
  Ni  Ni126  1  0.01312500  0.09744833  0.23128180  1.0
  Ni  Ni127  1  0.01312500  0.43078167  0.23128180  1.0
  Ni  Ni128  1  0.01312500  0.76411500  0.23128180  1.0
  Ni  Ni129  1  0.34645833  0.09744833  0.23128180  1.0
  Ni  Ni130  1  0.34645833  0.43078167  0.23128180  1.0
  Ni  Ni131  1  0.34645833  0.76411500  0.23128180  1.0
  Ni  Ni132  1  0.67979167  0.09744833  0.23128180  1.0
  Ni  Ni133  1  0.67979167  0.43078167  0.23128180  1.0
  Ni  Ni134  1  0.67979167  0.76411500  0.23128180  1.0
  Ni  Ni135  1  0.09744833  0.01312500  0.36871820  1.0
  Ni  Ni136  1  0.09744833  0.34645833  0.36871820  1.0
  Ni  Ni137  1  0.09744833  0.67979167  0.36871820  1.0
  Ni  Ni138  1  0.43078167  0.01312500  0.36871820  1.0
  Ni  Ni139  1  0.43078167  0.34645833  0.36871820  1.0
  Ni  Ni140  1  0.43078167  0.67979167  0.36871820  1.0
  Ni  Ni141  1  0.76411500  0.01312500  0.36871820  1.0
  Ni  Ni142  1  0.76411500  0.34645833  0.36871820  1.0
  Ni  Ni143  1  0.76411500  0.67979167  0.36871820  1.0
  Ni  Ni144  1  0.00000000  0.16666667  0.30000000  1.0
  Ni  Ni145  1  0.00000000  0.50000000  0.30000000  1.0
  Ni  Ni146  1  0.00000000  0.83333333  0.30000000  1.0
  Ni  Ni147  1  0.33333333  0.16666667  0.30000000  1.0
  Ni  Ni148  1  0.33333333  0.50000000  0.30000000  1.0
  Ni  Ni149  1  0.33333333  0.83333333  0.30000000  1.0
  Ni  Ni150  1  0.66666667  0.16666667  0.30000000  1.0
  Ni  Ni151  1  0.66666667  0.50000000  0.30000000  1.0
  Ni  Ni152  1  0.66666667  0.83333333  0.30000000  1.0
  Ni  Ni153  1  0.16666667  0.00000000  0.30000000  1.0
  Ni  Ni154  1  0.16666667  0.33333333  0.30000000  1.0
  Ni  Ni155  1  0.16666667  0.66666667  0.30000000  1.0
  Ni  Ni156  1  0.50000000  0.00000000  0.30000000  1.0
  Ni  Ni157  1  0.50000000  0.33333333  0.30000000  1.0
  Ni  Ni158  1  0.50000000  0.66666667  0.30000000  1.0
  Ni  Ni159  1  0.83333333  0.00000000  0.30000000  1.0
  Ni  Ni160  1  0.83333333  0.33333333  0.30000000  1.0
  Ni  Ni161  1  0.83333333  0.66666667  0.30000000  1.0
