# generated using pymatgen
data_Zr2Ni
_symmetry_space_group_name_H-M   'P 1'
_cell_length_a   42.15282732
_cell_length_b   25.10502802
_cell_length_c   68.90112684
_cell_angle_alpha   142.13445820
_cell_angle_beta   139.44051813
_cell_angle_gamma   65.02059742
_symmetry_Int_Tables_number   1
_chemical_formula_structural   Zr2Ni
_chemical_formula_sum   'Zr360 Ni180'
_cell_volume   26066.23747170
_cell_formula_units_Z   180
loop_
 _symmetry_equiv_pos_site_id
 _symmetry_equiv_pos_as_xyz
  1  'x, y, z'
loop_
 _atom_site_type_symbol
 _atom_site_label
 _atom_site_symmetry_multiplicity
 _atom_site_fract_x
 _atom_site_fract_y
 _atom_site_fract_z
 _atom_site_occupancy
  Zr  Zr0  1  0.11051000  0.27537333  0.02467000  1.0
  Zr  Zr1  1  0.11051000  0.60870667  0.02467000  1.0
  Zr  Zr2  1  0.11051000  0.94204000  0.02467000  1.0
  Zr  Zr3  1  0.44384333  0.27537333  0.02467000  1.0
  Zr  Zr4  1  0.44384333  0.60870667  0.02467000  1.0
  Zr  Zr5  1  0.44384333  0.94204000  0.02467000  1.0
  Zr  Zr6  1  0.77717667  0.27537333  0.02467000  1.0
  Zr  Zr7  1  0.77717667  0.60870667  0.02467000  1.0
  Zr  Zr8  1  0.77717667  0.94204000  0.02467000  1.0
  Zr  Zr9  1  0.27717667  0.27537333  0.06313154  1.0
  Zr  Zr10  1  0.27717667  0.60870667  0.06313154  1.0
  Zr  Zr11  1  0.27717667  0.94204000  0.06313154  1.0
  Zr  Zr12  1  0.61051000  0.27537333  0.06313154  1.0
  Zr  Zr13  1  0.61051000  0.60870667  0.06313154  1.0
  Zr  Zr14  1  0.61051000  0.94204000  0.06313154  1.0
  Zr  Zr15  1  0.94384333  0.27537333  0.06313154  1.0
  Zr  Zr16  1  0.94384333  0.60870667  0.06313154  1.0
  Zr  Zr17  1  0.94384333  0.94204000  0.06313154  1.0
  Zr  Zr18  1  0.05615667  0.05796000  0.01379154  1.0
  Zr  Zr19  1  0.05615667  0.39129333  0.01379154  1.0
  Zr  Zr20  1  0.05615667  0.72462667  0.01379154  1.0
  Zr  Zr21  1  0.38949000  0.05796000  0.01379154  1.0
  Zr  Zr22  1  0.38949000  0.39129333  0.01379154  1.0
  Zr  Zr23  1  0.38949000  0.72462667  0.01379154  1.0
  Zr  Zr24  1  0.72282333  0.05796000  0.01379154  1.0
  Zr  Zr25  1  0.72282333  0.39129333  0.01379154  1.0
  Zr  Zr26  1  0.72282333  0.72462667  0.01379154  1.0
  Zr  Zr27  1  0.22282333  0.05796000  0.05225308  1.0
  Zr  Zr28  1  0.22282333  0.39129333  0.05225308  1.0
  Zr  Zr29  1  0.22282333  0.72462667  0.05225308  1.0
  Zr  Zr30  1  0.55615667  0.05796000  0.05225308  1.0
  Zr  Zr31  1  0.55615667  0.39129333  0.05225308  1.0
  Zr  Zr32  1  0.55615667  0.72462667  0.05225308  1.0
  Zr  Zr33  1  0.88949000  0.05796000  0.05225308  1.0
  Zr  Zr34  1  0.88949000  0.39129333  0.05225308  1.0
  Zr  Zr35  1  0.88949000  0.72462667  0.05225308  1.0
  Zr  Zr36  1  0.13949000  0.16666667  0.04473308  1.0
  Zr  Zr37  1  0.13949000  0.50000000  0.04473308  1.0
  Zr  Zr38  1  0.13949000  0.83333333  0.04473308  1.0
  Zr  Zr39  1  0.47282333  0.16666667  0.04473308  1.0
  Zr  Zr40  1  0.47282333  0.50000000  0.04473308  1.0
  Zr  Zr41  1  0.47282333  0.83333333  0.04473308  1.0
  Zr  Zr42  1  0.80615667  0.16666667  0.04473308  1.0
  Zr  Zr43  1  0.80615667  0.50000000  0.04473308  1.0
  Zr  Zr44  1  0.80615667  0.83333333  0.04473308  1.0
  Zr  Zr45  1  0.30615667  0.16666667  0.00627154  1.0
  Zr  Zr46  1  0.30615667  0.50000000  0.00627154  1.0
  Zr  Zr47  1  0.30615667  0.83333333  0.00627154  1.0
  Zr  Zr48  1  0.63949000  0.16666667  0.00627154  1.0
  Zr  Zr49  1  0.63949000  0.50000000  0.00627154  1.0
  Zr  Zr50  1  0.63949000  0.83333333  0.00627154  1.0
  Zr  Zr51  1  0.97282333  0.16666667  0.00627154  1.0
  Zr  Zr52  1  0.97282333  0.50000000  0.00627154  1.0
  Zr  Zr53  1  0.97282333  0.83333333  0.00627154  1.0
  Zr  Zr54  1  0.02717667  0.16666667  0.07065154  1.0
  Zr  Zr55  1  0.02717667  0.50000000  0.07065154  1.0
  Zr  Zr56  1  0.02717667  0.83333333  0.07065154  1.0
  Zr  Zr57  1  0.36051000  0.16666667  0.07065154  1.0
  Zr  Zr58  1  0.36051000  0.50000000  0.07065154  1.0
  Zr  Zr59  1  0.36051000  0.83333333  0.07065154  1.0
  Zr  Zr60  1  0.69384333  0.16666667  0.07065154  1.0
  Zr  Zr61  1  0.69384333  0.50000000  0.07065154  1.0
  Zr  Zr62  1  0.69384333  0.83333333  0.07065154  1.0
  Zr  Zr63  1  0.19384333  0.16666667  0.03219000  1.0
  Zr  Zr64  1  0.19384333  0.50000000  0.03219000  1.0
  Zr  Zr65  1  0.19384333  0.83333333  0.03219000  1.0
  Zr  Zr66  1  0.52717667  0.16666667  0.03219000  1.0
  Zr  Zr67  1  0.52717667  0.50000000  0.03219000  1.0
  Zr  Zr68  1  0.52717667  0.83333333  0.03219000  1.0
  Zr  Zr69  1  0.86051000  0.16666667  0.03219000  1.0
  Zr  Zr70  1  0.86051000  0.50000000  0.03219000  1.0
  Zr  Zr71  1  0.86051000  0.83333333  0.03219000  1.0
  Ni  Ni72  1  0.12500000  0.33333333  0.00961538  1.0
  Ni  Ni73  1  0.12500000  0.66666667  0.00961538  1.0
  Ni  Ni74  1  0.12500000  1.00000000  0.00961538  1.0
  Ni  Ni75  1  0.45833333  0.33333333  0.00961538  1.0
  Ni  Ni76  1  0.45833333  0.66666667  0.00961538  1.0
  Ni  Ni77  1  0.45833333  1.00000000  0.00961538  1.0
  Ni  Ni78  1  0.79166667  0.33333333  0.00961538  1.0
  Ni  Ni79  1  0.79166667  0.66666667  0.00961538  1.0
  Ni  Ni80  1  0.79166667  1.00000000  0.00961538  1.0
  Ni  Ni81  1  0.29166667  0.33333333  0.04807692  1.0
  Ni  Ni82  1  0.29166667  0.66666667  0.04807692  1.0
  Ni  Ni83  1  0.29166667  1.00000000  0.04807692  1.0
  Ni  Ni84  1  0.62500000  0.33333333  0.04807692  1.0
  Ni  Ni85  1  0.62500000  0.66666667  0.04807692  1.0
  Ni  Ni86  1  0.62500000  1.00000000  0.04807692  1.0
  Ni  Ni87  1  0.95833333  0.33333333  0.04807692  1.0
  Ni  Ni88  1  0.95833333  0.66666667  0.04807692  1.0
  Ni  Ni89  1  0.95833333  1.00000000  0.04807692  1.0
  Ni  Ni90  1  0.04166667  0.00000000  0.02884615  1.0
  Ni  Ni91  1  0.04166667  0.33333333  0.02884615  1.0
  Ni  Ni92  1  0.04166667  0.66666667  0.02884615  1.0
  Ni  Ni93  1  0.37500000  0.00000000  0.02884615  1.0
  Ni  Ni94  1  0.37500000  0.33333333  0.02884615  1.0
  Ni  Ni95  1  0.37500000  0.66666667  0.02884615  1.0
  Ni  Ni96  1  0.70833333  0.00000000  0.02884615  1.0
  Ni  Ni97  1  0.70833333  0.33333333  0.02884615  1.0
  Ni  Ni98  1  0.70833333  0.66666667  0.02884615  1.0
  Ni  Ni99  1  0.20833333  0.00000000  0.06730769  1.0
  Ni  Ni100  1  0.20833333  0.33333333  0.06730769  1.0
  Ni  Ni101  1  0.20833333  0.66666667  0.06730769  1.0
  Ni  Ni102  1  0.54166667  0.00000000  0.06730769  1.0
  Ni  Ni103  1  0.54166667  0.33333333  0.06730769  1.0
  Ni  Ni104  1  0.54166667  0.66666667  0.06730769  1.0
  Ni  Ni105  1  0.87500000  0.00000000  0.06730769  1.0
  Ni  Ni106  1  0.87500000  0.33333333  0.06730769  1.0
  Ni  Ni107  1  0.87500000  0.66666667  0.06730769  1.0
  Zr  Zr108  1  0.11051000  0.27537333  0.10159308  1.0
  Zr  Zr109  1  0.11051000  0.60870667  0.10159308  1.0
  Zr  Zr110  1  0.11051000  0.94204000  0.10159308  1.0
  Zr  Zr111  1  0.44384333  0.27537333  0.10159308  1.0
  Zr  Zr112  1  0.44384333  0.60870667  0.10159308  1.0
  Zr  Zr113  1  0.44384333  0.94204000  0.10159308  1.0
  Zr  Zr114  1  0.77717667  0.27537333  0.10159308  1.0
  Zr  Zr115  1  0.77717667  0.60870667  0.10159308  1.0
  Zr  Zr116  1  0.77717667  0.94204000  0.10159308  1.0
  Zr  Zr117  1  0.27717667  0.27537333  0.14005462  1.0
  Zr  Zr118  1  0.27717667  0.60870667  0.14005462  1.0
  Zr  Zr119  1  0.27717667  0.94204000  0.14005462  1.0
  Zr  Zr120  1  0.61051000  0.27537333  0.14005462  1.0
  Zr  Zr121  1  0.61051000  0.60870667  0.14005462  1.0
  Zr  Zr122  1  0.61051000  0.94204000  0.14005462  1.0
  Zr  Zr123  1  0.94384333  0.27537333  0.14005462  1.0
  Zr  Zr124  1  0.94384333  0.60870667  0.14005462  1.0
  Zr  Zr125  1  0.94384333  0.94204000  0.14005462  1.0
  Zr  Zr126  1  0.05615667  0.05796000  0.09071462  1.0
  Zr  Zr127  1  0.05615667  0.39129333  0.09071462  1.0
  Zr  Zr128  1  0.05615667  0.72462667  0.09071462  1.0
  Zr  Zr129  1  0.38949000  0.05796000  0.09071462  1.0
  Zr  Zr130  1  0.38949000  0.39129333  0.09071462  1.0
  Zr  Zr131  1  0.38949000  0.72462667  0.09071462  1.0
  Zr  Zr132  1  0.72282333  0.05796000  0.09071462  1.0
  Zr  Zr133  1  0.72282333  0.39129333  0.09071462  1.0
  Zr  Zr134  1  0.72282333  0.72462667  0.09071462  1.0
  Zr  Zr135  1  0.22282333  0.05796000  0.12917615  1.0
  Zr  Zr136  1  0.22282333  0.39129333  0.12917615  1.0
  Zr  Zr137  1  0.22282333  0.72462667  0.12917615  1.0
  Zr  Zr138  1  0.55615667  0.05796000  0.12917615  1.0
  Zr  Zr139  1  0.55615667  0.39129333  0.12917615  1.0
  Zr  Zr140  1  0.55615667  0.72462667  0.12917615  1.0
  Zr  Zr141  1  0.88949000  0.05796000  0.12917615  1.0
  Zr  Zr142  1  0.88949000  0.39129333  0.12917615  1.0
  Zr  Zr143  1  0.88949000  0.72462667  0.12917615  1.0
  Zr  Zr144  1  0.13949000  0.16666667  0.12165615  1.0
  Zr  Zr145  1  0.13949000  0.50000000  0.12165615  1.0
  Zr  Zr146  1  0.13949000  0.83333333  0.12165615  1.0
  Zr  Zr147  1  0.47282333  0.16666667  0.12165615  1.0
  Zr  Zr148  1  0.47282333  0.50000000  0.12165615  1.0
  Zr  Zr149  1  0.47282333  0.83333333  0.12165615  1.0
  Zr  Zr150  1  0.80615667  0.16666667  0.12165615  1.0
  Zr  Zr151  1  0.80615667  0.50000000  0.12165615  1.0
  Zr  Zr152  1  0.80615667  0.83333333  0.12165615  1.0
  Zr  Zr153  1  0.30615667  0.16666667  0.08319462  1.0
  Zr  Zr154  1  0.30615667  0.50000000  0.08319462  1.0
  Zr  Zr155  1  0.30615667  0.83333333  0.08319462  1.0
  Zr  Zr156  1  0.63949000  0.16666667  0.08319462  1.0
  Zr  Zr157  1  0.63949000  0.50000000  0.08319462  1.0
  Zr  Zr158  1  0.63949000  0.83333333  0.08319462  1.0
  Zr  Zr159  1  0.97282333  0.16666667  0.08319462  1.0
  Zr  Zr160  1  0.97282333  0.50000000  0.08319462  1.0
  Zr  Zr161  1  0.97282333  0.83333333  0.08319462  1.0
  Zr  Zr162  1  0.02717667  0.16666667  0.14757462  1.0
  Zr  Zr163  1  0.02717667  0.50000000  0.14757462  1.0
  Zr  Zr164  1  0.02717667  0.83333333  0.14757462  1.0
  Zr  Zr165  1  0.36051000  0.16666667  0.14757462  1.0
  Zr  Zr166  1  0.36051000  0.50000000  0.14757462  1.0
  Zr  Zr167  1  0.36051000  0.83333333  0.14757462  1.0
  Zr  Zr168  1  0.69384333  0.16666667  0.14757462  1.0
  Zr  Zr169  1  0.69384333  0.50000000  0.14757462  1.0
  Zr  Zr170  1  0.69384333  0.83333333  0.14757462  1.0
  Zr  Zr171  1  0.19384333  0.16666667  0.10911308  1.0
  Zr  Zr172  1  0.19384333  0.50000000  0.10911308  1.0
  Zr  Zr173  1  0.19384333  0.83333333  0.10911308  1.0
  Zr  Zr174  1  0.52717667  0.16666667  0.10911308  1.0
  Zr  Zr175  1  0.52717667  0.50000000  0.10911308  1.0
  Zr  Zr176  1  0.52717667  0.83333333  0.10911308  1.0
  Zr  Zr177  1  0.86051000  0.16666667  0.10911308  1.0
  Zr  Zr178  1  0.86051000  0.50000000  0.10911308  1.0
  Zr  Zr179  1  0.86051000  0.83333333  0.10911308  1.0
  Ni  Ni180  1  0.12500000  0.33333333  0.08653846  1.0
  Ni  Ni181  1  0.12500000  0.66666667  0.08653846  1.0
  Ni  Ni182  1  0.12500000  1.00000000  0.08653846  1.0
  Ni  Ni183  1  0.45833333  0.33333333  0.08653846  1.0
  Ni  Ni184  1  0.45833333  0.66666667  0.08653846  1.0
  Ni  Ni185  1  0.45833333  1.00000000  0.08653846  1.0
  Ni  Ni186  1  0.79166667  0.33333333  0.08653846  1.0
  Ni  Ni187  1  0.79166667  0.66666667  0.08653846  1.0
  Ni  Ni188  1  0.79166667  1.00000000  0.08653846  1.0
  Ni  Ni189  1  0.29166667  0.33333333  0.12500000  1.0
  Ni  Ni190  1  0.29166667  0.66666667  0.12500000  1.0
  Ni  Ni191  1  0.29166667  1.00000000  0.12500000  1.0
  Ni  Ni192  1  0.62500000  0.33333333  0.12500000  1.0
  Ni  Ni193  1  0.62500000  0.66666667  0.12500000  1.0
  Ni  Ni194  1  0.62500000  1.00000000  0.12500000  1.0
  Ni  Ni195  1  0.95833333  0.33333333  0.12500000  1.0
  Ni  Ni196  1  0.95833333  0.66666667  0.12500000  1.0
  Ni  Ni197  1  0.95833333  1.00000000  0.12500000  1.0
  Ni  Ni198  1  0.04166667  0.00000000  0.10576923  1.0
  Ni  Ni199  1  0.04166667  0.33333333  0.10576923  1.0
  Ni  Ni200  1  0.04166667  0.66666667  0.10576923  1.0
  Ni  Ni201  1  0.37500000  0.00000000  0.10576923  1.0
  Ni  Ni202  1  0.37500000  0.33333333  0.10576923  1.0
  Ni  Ni203  1  0.37500000  0.66666667  0.10576923  1.0
  Ni  Ni204  1  0.70833333  0.00000000  0.10576923  1.0
  Ni  Ni205  1  0.70833333  0.33333333  0.10576923  1.0
  Ni  Ni206  1  0.70833333  0.66666667  0.10576923  1.0
  Ni  Ni207  1  0.20833333  0.00000000  0.14423077  1.0
  Ni  Ni208  1  0.20833333  0.33333333  0.14423077  1.0
  Ni  Ni209  1  0.20833333  0.66666667  0.14423077  1.0
  Ni  Ni210  1  0.54166667  0.00000000  0.14423077  1.0
  Ni  Ni211  1  0.54166667  0.33333333  0.14423077  1.0
  Ni  Ni212  1  0.54166667  0.66666667  0.14423077  1.0
  Ni  Ni213  1  0.87500000  0.00000000  0.14423077  1.0
  Ni  Ni214  1  0.87500000  0.33333333  0.14423077  1.0
  Ni  Ni215  1  0.87500000  0.66666667  0.14423077  1.0
  Zr  Zr216  1  0.11051000  0.27537333  0.17851615  1.0
  Zr  Zr217  1  0.11051000  0.60870667  0.17851615  1.0
  Zr  Zr218  1  0.11051000  0.94204000  0.17851615  1.0
  Zr  Zr219  1  0.44384333  0.27537333  0.17851615  1.0
  Zr  Zr220  1  0.44384333  0.60870667  0.17851615  1.0
  Zr  Zr221  1  0.44384333  0.94204000  0.17851615  1.0
  Zr  Zr222  1  0.77717667  0.27537333  0.17851615  1.0
  Zr  Zr223  1  0.77717667  0.60870667  0.17851615  1.0
  Zr  Zr224  1  0.77717667  0.94204000  0.17851615  1.0
  Zr  Zr225  1  0.27717667  0.27537333  0.21697769  1.0
  Zr  Zr226  1  0.27717667  0.60870667  0.21697769  1.0
  Zr  Zr227  1  0.27717667  0.94204000  0.21697769  1.0
  Zr  Zr228  1  0.61051000  0.27537333  0.21697769  1.0
  Zr  Zr229  1  0.61051000  0.60870667  0.21697769  1.0
  Zr  Zr230  1  0.61051000  0.94204000  0.21697769  1.0
  Zr  Zr231  1  0.94384333  0.27537333  0.21697769  1.0
  Zr  Zr232  1  0.94384333  0.60870667  0.21697769  1.0
  Zr  Zr233  1  0.94384333  0.94204000  0.21697769  1.0
  Zr  Zr234  1  0.05615667  0.05796000  0.16763769  1.0
  Zr  Zr235  1  0.05615667  0.39129333  0.16763769  1.0
  Zr  Zr236  1  0.05615667  0.72462667  0.16763769  1.0
  Zr  Zr237  1  0.38949000  0.05796000  0.16763769  1.0
  Zr  Zr238  1  0.38949000  0.39129333  0.16763769  1.0
  Zr  Zr239  1  0.38949000  0.72462667  0.16763769  1.0
  Zr  Zr240  1  0.72282333  0.05796000  0.16763769  1.0
  Zr  Zr241  1  0.72282333  0.39129333  0.16763769  1.0
  Zr  Zr242  1  0.72282333  0.72462667  0.16763769  1.0
  Zr  Zr243  1  0.22282333  0.05796000  0.20609923  1.0
  Zr  Zr244  1  0.22282333  0.39129333  0.20609923  1.0
  Zr  Zr245  1  0.22282333  0.72462667  0.20609923  1.0
  Zr  Zr246  1  0.55615667  0.05796000  0.20609923  1.0
  Zr  Zr247  1  0.55615667  0.39129333  0.20609923  1.0
  Zr  Zr248  1  0.55615667  0.72462667  0.20609923  1.0
  Zr  Zr249  1  0.88949000  0.05796000  0.20609923  1.0
  Zr  Zr250  1  0.88949000  0.39129333  0.20609923  1.0
  Zr  Zr251  1  0.88949000  0.72462667  0.20609923  1.0
  Zr  Zr252  1  0.13949000  0.16666667  0.19857923  1.0
  Zr  Zr253  1  0.13949000  0.50000000  0.19857923  1.0
  Zr  Zr254  1  0.13949000  0.83333333  0.19857923  1.0
  Zr  Zr255  1  0.47282333  0.16666667  0.19857923  1.0
  Zr  Zr256  1  0.47282333  0.50000000  0.19857923  1.0
  Zr  Zr257  1  0.47282333  0.83333333  0.19857923  1.0
  Zr  Zr258  1  0.80615667  0.16666667  0.19857923  1.0
  Zr  Zr259  1  0.80615667  0.50000000  0.19857923  1.0
  Zr  Zr260  1  0.80615667  0.83333333  0.19857923  1.0
  Zr  Zr261  1  0.30615667  0.16666667  0.16011769  1.0
  Zr  Zr262  1  0.30615667  0.50000000  0.16011769  1.0
  Zr  Zr263  1  0.30615667  0.83333333  0.16011769  1.0
  Zr  Zr264  1  0.63949000  0.16666667  0.16011769  1.0
  Zr  Zr265  1  0.63949000  0.50000000  0.16011769  1.0
  Zr  Zr266  1  0.63949000  0.83333333  0.16011769  1.0
  Zr  Zr267  1  0.97282333  0.16666667  0.16011769  1.0
  Zr  Zr268  1  0.97282333  0.50000000  0.16011769  1.0
  Zr  Zr269  1  0.97282333  0.83333333  0.16011769  1.0
  Zr  Zr270  1  0.02717667  0.16666667  0.22449769  1.0
  Zr  Zr271  1  0.02717667  0.50000000  0.22449769  1.0
  Zr  Zr272  1  0.02717667  0.83333333  0.22449769  1.0
  Zr  Zr273  1  0.36051000  0.16666667  0.22449769  1.0
  Zr  Zr274  1  0.36051000  0.50000000  0.22449769  1.0
  Zr  Zr275  1  0.36051000  0.83333333  0.22449769  1.0
  Zr  Zr276  1  0.69384333  0.16666667  0.22449769  1.0
  Zr  Zr277  1  0.69384333  0.50000000  0.22449769  1.0
  Zr  Zr278  1  0.69384333  0.83333333  0.22449769  1.0
  Zr  Zr279  1  0.19384333  0.16666667  0.18603615  1.0
  Zr  Zr280  1  0.19384333  0.50000000  0.18603615  1.0
  Zr  Zr281  1  0.19384333  0.83333333  0.18603615  1.0
  Zr  Zr282  1  0.52717667  0.16666667  0.18603615  1.0
  Zr  Zr283  1  0.52717667  0.50000000  0.18603615  1.0
  Zr  Zr284  1  0.52717667  0.83333333  0.18603615  1.0
  Zr  Zr285  1  0.86051000  0.16666667  0.18603615  1.0
  Zr  Zr286  1  0.86051000  0.50000000  0.18603615  1.0
  Zr  Zr287  1  0.86051000  0.83333333  0.18603615  1.0
  Ni  Ni288  1  0.12500000  0.33333333  0.16346154  1.0
  Ni  Ni289  1  0.12500000  0.66666667  0.16346154  1.0
  Ni  Ni290  1  0.12500000  1.00000000  0.16346154  1.0
  Ni  Ni291  1  0.45833333  0.33333333  0.16346154  1.0
  Ni  Ni292  1  0.45833333  0.66666667  0.16346154  1.0
  Ni  Ni293  1  0.45833333  1.00000000  0.16346154  1.0
  Ni  Ni294  1  0.79166667  0.33333333  0.16346154  1.0
  Ni  Ni295  1  0.79166667  0.66666667  0.16346154  1.0
  Ni  Ni296  1  0.79166667  1.00000000  0.16346154  1.0
  Ni  Ni297  1  0.29166667  0.33333333  0.20192308  1.0
  Ni  Ni298  1  0.29166667  0.66666667  0.20192308  1.0
  Ni  Ni299  1  0.29166667  1.00000000  0.20192308  1.0
  Ni  Ni300  1  0.62500000  0.33333333  0.20192308  1.0
  Ni  Ni301  1  0.62500000  0.66666667  0.20192308  1.0
  Ni  Ni302  1  0.62500000  1.00000000  0.20192308  1.0
  Ni  Ni303  1  0.95833333  0.33333333  0.20192308  1.0
  Ni  Ni304  1  0.95833333  0.66666667  0.20192308  1.0
  Ni  Ni305  1  0.95833333  1.00000000  0.20192308  1.0
  Ni  Ni306  1  0.04166667  0.00000000  0.18269231  1.0
  Ni  Ni307  1  0.04166667  0.33333333  0.18269231  1.0
  Ni  Ni308  1  0.04166667  0.66666667  0.18269231  1.0
  Ni  Ni309  1  0.37500000  0.00000000  0.18269231  1.0
  Ni  Ni310  1  0.37500000  0.33333333  0.18269231  1.0
  Ni  Ni311  1  0.37500000  0.66666667  0.18269231  1.0
  Ni  Ni312  1  0.70833333  0.00000000  0.18269231  1.0
  Ni  Ni313  1  0.70833333  0.33333333  0.18269231  1.0
  Ni  Ni314  1  0.70833333  0.66666667  0.18269231  1.0
  Ni  Ni315  1  0.20833333  0.00000000  0.22115385  1.0
  Ni  Ni316  1  0.20833333  0.33333333  0.22115385  1.0
  Ni  Ni317  1  0.20833333  0.66666667  0.22115385  1.0
  Ni  Ni318  1  0.54166667  0.00000000  0.22115385  1.0
  Ni  Ni319  1  0.54166667  0.33333333  0.22115385  1.0
  Ni  Ni320  1  0.54166667  0.66666667  0.22115385  1.0
  Ni  Ni321  1  0.87500000  0.00000000  0.22115385  1.0
  Ni  Ni322  1  0.87500000  0.33333333  0.22115385  1.0
  Ni  Ni323  1  0.87500000  0.66666667  0.22115385  1.0
  Zr  Zr324  1  0.11051000  0.27537333  0.25543923  1.0
  Zr  Zr325  1  0.11051000  0.60870667  0.25543923  1.0
  Zr  Zr326  1  0.11051000  0.94204000  0.25543923  1.0
  Zr  Zr327  1  0.44384333  0.27537333  0.25543923  1.0
  Zr  Zr328  1  0.44384333  0.60870667  0.25543923  1.0
  Zr  Zr329  1  0.44384333  0.94204000  0.25543923  1.0
  Zr  Zr330  1  0.77717667  0.27537333  0.25543923  1.0
  Zr  Zr331  1  0.77717667  0.60870667  0.25543923  1.0
  Zr  Zr332  1  0.77717667  0.94204000  0.25543923  1.0
  Zr  Zr333  1  0.27717667  0.27537333  0.29390077  1.0
  Zr  Zr334  1  0.27717667  0.60870667  0.29390077  1.0
  Zr  Zr335  1  0.27717667  0.94204000  0.29390077  1.0
  Zr  Zr336  1  0.61051000  0.27537333  0.29390077  1.0
  Zr  Zr337  1  0.61051000  0.60870667  0.29390077  1.0
  Zr  Zr338  1  0.61051000  0.94204000  0.29390077  1.0
  Zr  Zr339  1  0.94384333  0.27537333  0.29390077  1.0
  Zr  Zr340  1  0.94384333  0.60870667  0.29390077  1.0
  Zr  Zr341  1  0.94384333  0.94204000  0.29390077  1.0
  Zr  Zr342  1  0.05615667  0.05796000  0.24456077  1.0
  Zr  Zr343  1  0.05615667  0.39129333  0.24456077  1.0
  Zr  Zr344  1  0.05615667  0.72462667  0.24456077  1.0
  Zr  Zr345  1  0.38949000  0.05796000  0.24456077  1.0
  Zr  Zr346  1  0.38949000  0.39129333  0.24456077  1.0
  Zr  Zr347  1  0.38949000  0.72462667  0.24456077  1.0
  Zr  Zr348  1  0.72282333  0.05796000  0.24456077  1.0
  Zr  Zr349  1  0.72282333  0.39129333  0.24456077  1.0
  Zr  Zr350  1  0.72282333  0.72462667  0.24456077  1.0
  Zr  Zr351  1  0.22282333  0.05796000  0.28302231  1.0
  Zr  Zr352  1  0.22282333  0.39129333  0.28302231  1.0
  Zr  Zr353  1  0.22282333  0.72462667  0.28302231  1.0
  Zr  Zr354  1  0.55615667  0.05796000  0.28302231  1.0
  Zr  Zr355  1  0.55615667  0.39129333  0.28302231  1.0
  Zr  Zr356  1  0.55615667  0.72462667  0.28302231  1.0
  Zr  Zr357  1  0.88949000  0.05796000  0.28302231  1.0
  Zr  Zr358  1  0.88949000  0.39129333  0.28302231  1.0
  Zr  Zr359  1  0.88949000  0.72462667  0.28302231  1.0
  Zr  Zr360  1  0.13949000  0.16666667  0.27550231  1.0
  Zr  Zr361  1  0.13949000  0.50000000  0.27550231  1.0
  Zr  Zr362  1  0.13949000  0.83333333  0.27550231  1.0
  Zr  Zr363  1  0.47282333  0.16666667  0.27550231  1.0
  Zr  Zr364  1  0.47282333  0.50000000  0.27550231  1.0
  Zr  Zr365  1  0.47282333  0.83333333  0.27550231  1.0
  Zr  Zr366  1  0.80615667  0.16666667  0.27550231  1.0
  Zr  Zr367  1  0.80615667  0.50000000  0.27550231  1.0
  Zr  Zr368  1  0.80615667  0.83333333  0.27550231  1.0
  Zr  Zr369  1  0.30615667  0.16666667  0.23704077  1.0
  Zr  Zr370  1  0.30615667  0.50000000  0.23704077  1.0
  Zr  Zr371  1  0.30615667  0.83333333  0.23704077  1.0
  Zr  Zr372  1  0.63949000  0.16666667  0.23704077  1.0
  Zr  Zr373  1  0.63949000  0.50000000  0.23704077  1.0
  Zr  Zr374  1  0.63949000  0.83333333  0.23704077  1.0
  Zr  Zr375  1  0.97282333  0.16666667  0.23704077  1.0
  Zr  Zr376  1  0.97282333  0.50000000  0.23704077  1.0
  Zr  Zr377  1  0.97282333  0.83333333  0.23704077  1.0
  Zr  Zr378  1  0.02717667  0.16666667  0.30142077  1.0
  Zr  Zr379  1  0.02717667  0.50000000  0.30142077  1.0
  Zr  Zr380  1  0.02717667  0.83333333  0.30142077  1.0
  Zr  Zr381  1  0.36051000  0.16666667  0.30142077  1.0
  Zr  Zr382  1  0.36051000  0.50000000  0.30142077  1.0
  Zr  Zr383  1  0.36051000  0.83333333  0.30142077  1.0
  Zr  Zr384  1  0.69384333  0.16666667  0.30142077  1.0
  Zr  Zr385  1  0.69384333  0.50000000  0.30142077  1.0
  Zr  Zr386  1  0.69384333  0.83333333  0.30142077  1.0
  Zr  Zr387  1  0.19384333  0.16666667  0.26295923  1.0
  Zr  Zr388  1  0.19384333  0.50000000  0.26295923  1.0
  Zr  Zr389  1  0.19384333  0.83333333  0.26295923  1.0
  Zr  Zr390  1  0.52717667  0.16666667  0.26295923  1.0
  Zr  Zr391  1  0.52717667  0.50000000  0.26295923  1.0
  Zr  Zr392  1  0.52717667  0.83333333  0.26295923  1.0
  Zr  Zr393  1  0.86051000  0.16666667  0.26295923  1.0
  Zr  Zr394  1  0.86051000  0.50000000  0.26295923  1.0
  Zr  Zr395  1  0.86051000  0.83333333  0.26295923  1.0
  Ni  Ni396  1  0.12500000  0.33333333  0.24038462  1.0
  Ni  Ni397  1  0.12500000  0.66666667  0.24038462  1.0
  Ni  Ni398  1  0.12500000  1.00000000  0.24038462  1.0
  Ni  Ni399  1  0.45833333  0.33333333  0.24038462  1.0
  Ni  Ni400  1  0.45833333  0.66666667  0.24038462  1.0
  Ni  Ni401  1  0.45833333  1.00000000  0.24038462  1.0
  Ni  Ni402  1  0.79166667  0.33333333  0.24038462  1.0
  Ni  Ni403  1  0.79166667  0.66666667  0.24038462  1.0
  Ni  Ni404  1  0.79166667  1.00000000  0.24038462  1.0
  Ni  Ni405  1  0.29166667  0.33333333  0.27884615  1.0
  Ni  Ni406  1  0.29166667  0.66666667  0.27884615  1.0
  Ni  Ni407  1  0.29166667  1.00000000  0.27884615  1.0
  Ni  Ni408  1  0.62500000  0.33333333  0.27884615  1.0
  Ni  Ni409  1  0.62500000  0.66666667  0.27884615  1.0
  Ni  Ni410  1  0.62500000  1.00000000  0.27884615  1.0
  Ni  Ni411  1  0.95833333  0.33333333  0.27884615  1.0
  Ni  Ni412  1  0.95833333  0.66666667  0.27884615  1.0
  Ni  Ni413  1  0.95833333  1.00000000  0.27884615  1.0
  Ni  Ni414  1  0.04166667  0.00000000  0.25961538  1.0
  Ni  Ni415  1  0.04166667  0.33333333  0.25961538  1.0
  Ni  Ni416  1  0.04166667  0.66666667  0.25961538  1.0
  Ni  Ni417  1  0.37500000  0.00000000  0.25961538  1.0
  Ni  Ni418  1  0.37500000  0.33333333  0.25961538  1.0
  Ni  Ni419  1  0.37500000  0.66666667  0.25961538  1.0
  Ni  Ni420  1  0.70833333  0.00000000  0.25961538  1.0
  Ni  Ni421  1  0.70833333  0.33333333  0.25961538  1.0
  Ni  Ni422  1  0.70833333  0.66666667  0.25961538  1.0
  Ni  Ni423  1  0.20833333  0.00000000  0.29807692  1.0
  Ni  Ni424  1  0.20833333  0.33333333  0.29807692  1.0
  Ni  Ni425  1  0.20833333  0.66666667  0.29807692  1.0
  Ni  Ni426  1  0.54166667  0.00000000  0.29807692  1.0
  Ni  Ni427  1  0.54166667  0.33333333  0.29807692  1.0
  Ni  Ni428  1  0.54166667  0.66666667  0.29807692  1.0
  Ni  Ni429  1  0.87500000  0.00000000  0.29807692  1.0
  Ni  Ni430  1  0.87500000  0.33333333  0.29807692  1.0
  Ni  Ni431  1  0.87500000  0.66666667  0.29807692  1.0
  Zr  Zr432  1  0.11051000  0.27537333  0.33236231  1.0
  Zr  Zr433  1  0.11051000  0.60870667  0.33236231  1.0
  Zr  Zr434  1  0.11051000  0.94204000  0.33236231  1.0
  Zr  Zr435  1  0.44384333  0.27537333  0.33236231  1.0
  Zr  Zr436  1  0.44384333  0.60870667  0.33236231  1.0
  Zr  Zr437  1  0.44384333  0.94204000  0.33236231  1.0
  Zr  Zr438  1  0.77717667  0.27537333  0.33236231  1.0
  Zr  Zr439  1  0.77717667  0.60870667  0.33236231  1.0
  Zr  Zr440  1  0.77717667  0.94204000  0.33236231  1.0
  Zr  Zr441  1  0.27717667  0.27537333  0.37082385  1.0
  Zr  Zr442  1  0.27717667  0.60870667  0.37082385  1.0
  Zr  Zr443  1  0.27717667  0.94204000  0.37082385  1.0
  Zr  Zr444  1  0.61051000  0.27537333  0.37082385  1.0
  Zr  Zr445  1  0.61051000  0.60870667  0.37082385  1.0
  Zr  Zr446  1  0.61051000  0.94204000  0.37082385  1.0
  Zr  Zr447  1  0.94384333  0.27537333  0.37082385  1.0
  Zr  Zr448  1  0.94384333  0.60870667  0.37082385  1.0
  Zr  Zr449  1  0.94384333  0.94204000  0.37082385  1.0
  Zr  Zr450  1  0.05615667  0.05796000  0.32148385  1.0
  Zr  Zr451  1  0.05615667  0.39129333  0.32148385  1.0
  Zr  Zr452  1  0.05615667  0.72462667  0.32148385  1.0
  Zr  Zr453  1  0.38949000  0.05796000  0.32148385  1.0
  Zr  Zr454  1  0.38949000  0.39129333  0.32148385  1.0
  Zr  Zr455  1  0.38949000  0.72462667  0.32148385  1.0
  Zr  Zr456  1  0.72282333  0.05796000  0.32148385  1.0
  Zr  Zr457  1  0.72282333  0.39129333  0.32148385  1.0
  Zr  Zr458  1  0.72282333  0.72462667  0.32148385  1.0
  Zr  Zr459  1  0.22282333  0.05796000  0.35994538  1.0
  Zr  Zr460  1  0.22282333  0.39129333  0.35994538  1.0
  Zr  Zr461  1  0.22282333  0.72462667  0.35994538  1.0
  Zr  Zr462  1  0.55615667  0.05796000  0.35994538  1.0
  Zr  Zr463  1  0.55615667  0.39129333  0.35994538  1.0
  Zr  Zr464  1  0.55615667  0.72462667  0.35994538  1.0
  Zr  Zr465  1  0.88949000  0.05796000  0.35994538  1.0
  Zr  Zr466  1  0.88949000  0.39129333  0.35994538  1.0
  Zr  Zr467  1  0.88949000  0.72462667  0.35994538  1.0
  Zr  Zr468  1  0.13949000  0.16666667  0.35242538  1.0
  Zr  Zr469  1  0.13949000  0.50000000  0.35242538  1.0
  Zr  Zr470  1  0.13949000  0.83333333  0.35242538  1.0
  Zr  Zr471  1  0.47282333  0.16666667  0.35242538  1.0
  Zr  Zr472  1  0.47282333  0.50000000  0.35242538  1.0
  Zr  Zr473  1  0.47282333  0.83333333  0.35242538  1.0
  Zr  Zr474  1  0.80615667  0.16666667  0.35242538  1.0
  Zr  Zr475  1  0.80615667  0.50000000  0.35242538  1.0
  Zr  Zr476  1  0.80615667  0.83333333  0.35242538  1.0
  Zr  Zr477  1  0.30615667  0.16666667  0.31396385  1.0
  Zr  Zr478  1  0.30615667  0.50000000  0.31396385  1.0
  Zr  Zr479  1  0.30615667  0.83333333  0.31396385  1.0
  Zr  Zr480  1  0.63949000  0.16666667  0.31396385  1.0
  Zr  Zr481  1  0.63949000  0.50000000  0.31396385  1.0
  Zr  Zr482  1  0.63949000  0.83333333  0.31396385  1.0
  Zr  Zr483  1  0.97282333  0.16666667  0.31396385  1.0
  Zr  Zr484  1  0.97282333  0.50000000  0.31396385  1.0
  Zr  Zr485  1  0.97282333  0.83333333  0.31396385  1.0
  Zr  Zr486  1  0.02717667  0.16666667  0.37834385  1.0
  Zr  Zr487  1  0.02717667  0.50000000  0.37834385  1.0
  Zr  Zr488  1  0.02717667  0.83333333  0.37834385  1.0
  Zr  Zr489  1  0.36051000  0.16666667  0.37834385  1.0
  Zr  Zr490  1  0.36051000  0.50000000  0.37834385  1.0
  Zr  Zr491  1  0.36051000  0.83333333  0.37834385  1.0
  Zr  Zr492  1  0.69384333  0.16666667  0.37834385  1.0
  Zr  Zr493  1  0.69384333  0.50000000  0.37834385  1.0
  Zr  Zr494  1  0.69384333  0.83333333  0.37834385  1.0
  Zr  Zr495  1  0.19384333  0.16666667  0.33988231  1.0
  Zr  Zr496  1  0.19384333  0.50000000  0.33988231  1.0
  Zr  Zr497  1  0.19384333  0.83333333  0.33988231  1.0
  Zr  Zr498  1  0.52717667  0.16666667  0.33988231  1.0
  Zr  Zr499  1  0.52717667  0.50000000  0.33988231  1.0
  Zr  Zr500  1  0.52717667  0.83333333  0.33988231  1.0
  Zr  Zr501  1  0.86051000  0.16666667  0.33988231  1.0
  Zr  Zr502  1  0.86051000  0.50000000  0.33988231  1.0
  Zr  Zr503  1  0.86051000  0.83333333  0.33988231  1.0
  Ni  Ni504  1  0.12500000  0.33333333  0.31730769  1.0
  Ni  Ni505  1  0.12500000  0.66666667  0.31730769  1.0
  Ni  Ni506  1  0.12500000  1.00000000  0.31730769  1.0
  Ni  Ni507  1  0.45833333  0.33333333  0.31730769  1.0
  Ni  Ni508  1  0.45833333  0.66666667  0.31730769  1.0
  Ni  Ni509  1  0.45833333  1.00000000  0.31730769  1.0
  Ni  Ni510  1  0.79166667  0.33333333  0.31730769  1.0
  Ni  Ni511  1  0.79166667  0.66666667  0.31730769  1.0
  Ni  Ni512  1  0.79166667  1.00000000  0.31730769  1.0
  Ni  Ni513  1  0.29166667  0.33333333  0.35576923  1.0
  Ni  Ni514  1  0.29166667  0.66666667  0.35576923  1.0
  Ni  Ni515  1  0.29166667  1.00000000  0.35576923  1.0
  Ni  Ni516  1  0.62500000  0.33333333  0.35576923  1.0
  Ni  Ni517  1  0.62500000  0.66666667  0.35576923  1.0
  Ni  Ni518  1  0.62500000  1.00000000  0.35576923  1.0
  Ni  Ni519  1  0.95833333  0.33333333  0.35576923  1.0
  Ni  Ni520  1  0.95833333  0.66666667  0.35576923  1.0
  Ni  Ni521  1  0.95833333  1.00000000  0.35576923  1.0
  Ni  Ni522  1  0.04166667  0.00000000  0.33653846  1.0
  Ni  Ni523  1  0.04166667  0.33333333  0.33653846  1.0
  Ni  Ni524  1  0.04166667  0.66666667  0.33653846  1.0
  Ni  Ni525  1  0.37500000  0.00000000  0.33653846  1.0
  Ni  Ni526  1  0.37500000  0.33333333  0.33653846  1.0
  Ni  Ni527  1  0.37500000  0.66666667  0.33653846  1.0
  Ni  Ni528  1  0.70833333  0.00000000  0.33653846  1.0
  Ni  Ni529  1  0.70833333  0.33333333  0.33653846  1.0
  Ni  Ni530  1  0.70833333  0.66666667  0.33653846  1.0
  Ni  Ni531  1  0.20833333  0.00000000  0.37500000  1.0
  Ni  Ni532  1  0.20833333  0.33333333  0.37500000  1.0
  Ni  Ni533  1  0.20833333  0.66666667  0.37500000  1.0
  Ni  Ni534  1  0.54166667  0.00000000  0.37500000  1.0
  Ni  Ni535  1  0.54166667  0.33333333  0.37500000  1.0
  Ni  Ni536  1  0.54166667  0.66666667  0.37500000  1.0
  Ni  Ni537  1  0.87500000  0.00000000  0.37500000  1.0
  Ni  Ni538  1  0.87500000  0.33333333  0.37500000  1.0
  Ni  Ni539  1  0.87500000  0.66666667  0.37500000  1.0
