# generated using pymatgen
data_Zr2Ni
_symmetry_space_group_name_H-M   'P 1'
_cell_length_a   25.10502802
_cell_length_b   31.85654658
_cell_length_c   25.58880357
_cell_angle_alpha   97.23528788
_cell_angle_beta   97.00348856
_cell_angle_gamma   94.72503938
_symmetry_Int_Tables_number   1
_chemical_formula_structural   Zr2Ni
_chemical_formula_sum   'Zr288 Ni144'
_cell_volume   20050.95190131
_cell_formula_units_Z   144
loop_
 _symmetry_equiv_pos_site_id
 _symmetry_equiv_pos_as_xyz
  1  'x, y, z'
loop_
 _atom_site_type_symbol
 _atom_site_label
 _atom_site_symmetry_multiplicity
 _atom_site_fract_x
 _atom_site_fract_y
 _atom_site_fract_z
 _atom_site_occupancy
  Ni  Ni0  1  0.12083333  0.22500000  0.98750000  1.0
  Ni  Ni1  1  0.12083333  0.55833333  0.98750000  1.0
  Ni  Ni2  1  0.12083333  0.89166667  0.98750000  1.0
  Ni  Ni3  1  0.45416667  0.22500000  0.98750000  1.0
  Ni  Ni4  1  0.45416667  0.55833333  0.98750000  1.0
  Ni  Ni5  1  0.45416667  0.89166667  0.98750000  1.0
  Ni  Ni6  1  0.78750000  0.22500000  0.98750000  1.0
  Ni  Ni7  1  0.78750000  0.55833333  0.98750000  1.0
  Ni  Ni8  1  0.78750000  0.89166667  0.98750000  1.0
  Ni  Ni9  1  0.27083333  0.12500000  0.93750000  1.0
  Ni  Ni10  1  0.27083333  0.45833333  0.93750000  1.0
  Ni  Ni11  1  0.27083333  0.79166667  0.93750000  1.0
  Ni  Ni12  1  0.60416667  0.12500000  0.93750000  1.0
  Ni  Ni13  1  0.60416667  0.45833333  0.93750000  1.0
  Ni  Ni14  1  0.60416667  0.79166667  0.93750000  1.0
  Ni  Ni15  1  0.93750000  0.12500000  0.93750000  1.0
  Ni  Ni16  1  0.93750000  0.45833333  0.93750000  1.0
  Ni  Ni17  1  0.93750000  0.79166667  0.93750000  1.0
  Ni  Ni18  1  0.02916667  0.00833333  0.96250000  1.0
  Ni  Ni19  1  0.02916667  0.34166667  0.96250000  1.0
  Ni  Ni20  1  0.02916667  0.67500000  0.96250000  1.0
  Ni  Ni21  1  0.36250000  0.00833333  0.96250000  1.0
  Ni  Ni22  1  0.36250000  0.34166667  0.96250000  1.0
  Ni  Ni23  1  0.36250000  0.67500000  0.96250000  1.0
  Ni  Ni24  1  0.69583333  0.00833333  0.96250000  1.0
  Ni  Ni25  1  0.69583333  0.34166667  0.96250000  1.0
  Ni  Ni26  1  0.69583333  0.67500000  0.96250000  1.0
  Ni  Ni27  1  0.17916667  0.24166667  0.91250000  1.0
  Ni  Ni28  1  0.17916667  0.57500000  0.91250000  1.0
  Ni  Ni29  1  0.17916667  0.90833333  0.91250000  1.0
  Ni  Ni30  1  0.51250000  0.24166667  0.91250000  1.0
  Ni  Ni31  1  0.51250000  0.57500000  0.91250000  1.0
  Ni  Ni32  1  0.51250000  0.90833333  0.91250000  1.0
  Ni  Ni33  1  0.84583333  0.24166667  0.91250000  1.0
  Ni  Ni34  1  0.84583333  0.57500000  0.91250000  1.0
  Ni  Ni35  1  0.84583333  0.90833333  0.91250000  1.0
  Ni  Ni36  1  0.08750000  0.02500000  0.88750000  1.0
  Ni  Ni37  1  0.08750000  0.35833333  0.88750000  1.0
  Ni  Ni38  1  0.08750000  0.69166667  0.88750000  1.0
  Ni  Ni39  1  0.42083333  0.02500000  0.88750000  1.0
  Ni  Ni40  1  0.42083333  0.35833333  0.88750000  1.0
  Ni  Ni41  1  0.42083333  0.69166667  0.88750000  1.0
  Ni  Ni42  1  0.75416667  0.02500000  0.88750000  1.0
  Ni  Ni43  1  0.75416667  0.35833333  0.88750000  1.0
  Ni  Ni44  1  0.75416667  0.69166667  0.88750000  1.0
  Ni  Ni45  1  0.23750000  0.25833333  0.83750000  1.0
  Ni  Ni46  1  0.23750000  0.59166667  0.83750000  1.0
  Ni  Ni47  1  0.23750000  0.92500000  0.83750000  1.0
  Ni  Ni48  1  0.57083333  0.25833333  0.83750000  1.0
  Ni  Ni49  1  0.57083333  0.59166667  0.83750000  1.0
  Ni  Ni50  1  0.57083333  0.92500000  0.83750000  1.0
  Ni  Ni51  1  0.90416667  0.25833333  0.83750000  1.0
  Ni  Ni52  1  0.90416667  0.59166667  0.83750000  1.0
  Ni  Ni53  1  0.90416667  0.92500000  0.83750000  1.0
  Ni  Ni54  1  0.32916667  0.14166667  0.86250000  1.0
  Ni  Ni55  1  0.32916667  0.47500000  0.86250000  1.0
  Ni  Ni56  1  0.32916667  0.80833333  0.86250000  1.0
  Ni  Ni57  1  0.66250000  0.14166667  0.86250000  1.0
  Ni  Ni58  1  0.66250000  0.47500000  0.86250000  1.0
  Ni  Ni59  1  0.66250000  0.80833333  0.86250000  1.0
  Ni  Ni60  1  0.99583333  0.14166667  0.86250000  1.0
  Ni  Ni61  1  0.99583333  0.47500000  0.86250000  1.0
  Ni  Ni62  1  0.99583333  0.80833333  0.86250000  1.0
  Ni  Ni63  1  0.14583333  0.04166667  0.81250000  1.0
  Ni  Ni64  1  0.14583333  0.37500000  0.81250000  1.0
  Ni  Ni65  1  0.14583333  0.70833333  0.81250000  1.0
  Ni  Ni66  1  0.47916667  0.04166667  0.81250000  1.0
  Ni  Ni67  1  0.47916667  0.37500000  0.81250000  1.0
  Ni  Ni68  1  0.47916667  0.70833333  0.81250000  1.0
  Ni  Ni69  1  0.81250000  0.04166667  0.81250000  1.0
  Ni  Ni70  1  0.81250000  0.37500000  0.81250000  1.0
  Ni  Ni71  1  0.81250000  0.70833333  0.81250000  1.0
  Ni  Ni72  1  0.05416667  0.15833333  0.78750000  1.0
  Ni  Ni73  1  0.05416667  0.49166667  0.78750000  1.0
  Ni  Ni74  1  0.05416667  0.82500000  0.78750000  1.0
  Ni  Ni75  1  0.38750000  0.15833333  0.78750000  1.0
  Ni  Ni76  1  0.38750000  0.49166667  0.78750000  1.0
  Ni  Ni77  1  0.38750000  0.82500000  0.78750000  1.0
  Ni  Ni78  1  0.72083333  0.15833333  0.78750000  1.0
  Ni  Ni79  1  0.72083333  0.49166667  0.78750000  1.0
  Ni  Ni80  1  0.72083333  0.82500000  0.78750000  1.0
  Ni  Ni81  1  0.20416667  0.05833333  0.73750000  1.0
  Ni  Ni82  1  0.20416667  0.39166667  0.73750000  1.0
  Ni  Ni83  1  0.20416667  0.72500000  0.73750000  1.0
  Ni  Ni84  1  0.53750000  0.05833333  0.73750000  1.0
  Ni  Ni85  1  0.53750000  0.39166667  0.73750000  1.0
  Ni  Ni86  1  0.53750000  0.72500000  0.73750000  1.0
  Ni  Ni87  1  0.87083333  0.05833333  0.73750000  1.0
  Ni  Ni88  1  0.87083333  0.39166667  0.73750000  1.0
  Ni  Ni89  1  0.87083333  0.72500000  0.73750000  1.0
  Ni  Ni90  1  0.29583333  0.27500000  0.76250000  1.0
  Ni  Ni91  1  0.29583333  0.60833333  0.76250000  1.0
  Ni  Ni92  1  0.29583333  0.94166667  0.76250000  1.0
  Ni  Ni93  1  0.62916667  0.27500000  0.76250000  1.0
  Ni  Ni94  1  0.62916667  0.60833333  0.76250000  1.0
  Ni  Ni95  1  0.62916667  0.94166667  0.76250000  1.0
  Ni  Ni96  1  0.96250000  0.27500000  0.76250000  1.0
  Ni  Ni97  1  0.96250000  0.60833333  0.76250000  1.0
  Ni  Ni98  1  0.96250000  0.94166667  0.76250000  1.0
  Ni  Ni99  1  0.11250000  0.17500000  0.71250000  1.0
  Ni  Ni100  1  0.11250000  0.50833333  0.71250000  1.0
  Ni  Ni101  1  0.11250000  0.84166667  0.71250000  1.0
  Ni  Ni102  1  0.44583333  0.17500000  0.71250000  1.0
  Ni  Ni103  1  0.44583333  0.50833333  0.71250000  1.0
  Ni  Ni104  1  0.44583333  0.84166667  0.71250000  1.0
  Ni  Ni105  1  0.77916667  0.17500000  0.71250000  1.0
  Ni  Ni106  1  0.77916667  0.50833333  0.71250000  1.0
  Ni  Ni107  1  0.77916667  0.84166667  0.71250000  1.0
  Ni  Ni108  1  0.02083333  0.29166667  0.68750000  1.0
  Ni  Ni109  1  0.02083333  0.62500000  0.68750000  1.0
  Ni  Ni110  1  0.02083333  0.95833333  0.68750000  1.0
  Ni  Ni111  1  0.35416667  0.29166667  0.68750000  1.0
  Ni  Ni112  1  0.35416667  0.62500000  0.68750000  1.0
  Ni  Ni113  1  0.35416667  0.95833333  0.68750000  1.0
  Ni  Ni114  1  0.68750000  0.29166667  0.68750000  1.0
  Ni  Ni115  1  0.68750000  0.62500000  0.68750000  1.0
  Ni  Ni116  1  0.68750000  0.95833333  0.68750000  1.0
  Ni  Ni117  1  0.17083333  0.19166667  0.63750000  1.0
  Ni  Ni118  1  0.17083333  0.52500000  0.63750000  1.0
  Ni  Ni119  1  0.17083333  0.85833333  0.63750000  1.0
  Ni  Ni120  1  0.50416667  0.19166667  0.63750000  1.0
  Ni  Ni121  1  0.50416667  0.52500000  0.63750000  1.0
  Ni  Ni122  1  0.50416667  0.85833333  0.63750000  1.0
  Ni  Ni123  1  0.83750000  0.19166667  0.63750000  1.0
  Ni  Ni124  1  0.83750000  0.52500000  0.63750000  1.0
  Ni  Ni125  1  0.83750000  0.85833333  0.63750000  1.0
  Ni  Ni126  1  0.26250000  0.07500000  0.66250000  1.0
  Ni  Ni127  1  0.26250000  0.40833333  0.66250000  1.0
  Ni  Ni128  1  0.26250000  0.74166667  0.66250000  1.0
  Ni  Ni129  1  0.59583333  0.07500000  0.66250000  1.0
  Ni  Ni130  1  0.59583333  0.40833333  0.66250000  1.0
  Ni  Ni131  1  0.59583333  0.74166667  0.66250000  1.0
  Ni  Ni132  1  0.92916667  0.07500000  0.66250000  1.0
  Ni  Ni133  1  0.92916667  0.40833333  0.66250000  1.0
  Ni  Ni134  1  0.92916667  0.74166667  0.66250000  1.0
  Ni  Ni135  1  0.07916667  0.30833333  0.61250000  1.0
  Ni  Ni136  1  0.07916667  0.64166667  0.61250000  1.0
  Ni  Ni137  1  0.07916667  0.97500000  0.61250000  1.0
  Ni  Ni138  1  0.41250000  0.30833333  0.61250000  1.0
  Ni  Ni139  1  0.41250000  0.64166667  0.61250000  1.0
  Ni  Ni140  1  0.41250000  0.97500000  0.61250000  1.0
  Ni  Ni141  1  0.74583333  0.30833333  0.61250000  1.0
  Ni  Ni142  1  0.74583333  0.64166667  0.61250000  1.0
  Ni  Ni143  1  0.74583333  0.97500000  0.61250000  1.0
  Zr  Zr144  1  0.27590167  0.20615667  0.90923500  1.0
  Zr  Zr145  1  0.27590167  0.53949000  0.90923500  1.0
  Zr  Zr146  1  0.27590167  0.87282333  0.90923500  1.0
  Zr  Zr147  1  0.60923500  0.20615667  0.90923500  1.0
  Zr  Zr148  1  0.60923500  0.53949000  0.90923500  1.0
  Zr  Zr149  1  0.60923500  0.87282333  0.90923500  1.0
  Zr  Zr150  1  0.94256833  0.20615667  0.90923500  1.0
  Zr  Zr151  1  0.94256833  0.53949000  0.90923500  1.0
  Zr  Zr152  1  0.94256833  0.87282333  0.90923500  1.0
  Zr  Zr153  1  0.12590167  0.30615667  0.95923500  1.0
  Zr  Zr154  1  0.12590167  0.63949000  0.95923500  1.0
  Zr  Zr155  1  0.12590167  0.97282333  0.95923500  1.0
  Zr  Zr156  1  0.45923500  0.30615667  0.95923500  1.0
  Zr  Zr157  1  0.45923500  0.63949000  0.95923500  1.0
  Zr  Zr158  1  0.45923500  0.97282333  0.95923500  1.0
  Zr  Zr159  1  0.79256833  0.30615667  0.95923500  1.0
  Zr  Zr160  1  0.79256833  0.63949000  0.95923500  1.0
  Zr  Zr161  1  0.79256833  0.97282333  0.95923500  1.0
  Zr  Zr162  1  0.02409833  0.26051000  0.99076500  1.0
  Zr  Zr163  1  0.02409833  0.59384333  0.99076500  1.0
  Zr  Zr164  1  0.02409833  0.92717667  0.99076500  1.0
  Zr  Zr165  1  0.35743167  0.26051000  0.99076500  1.0
  Zr  Zr166  1  0.35743167  0.59384333  0.99076500  1.0
  Zr  Zr167  1  0.35743167  0.92717667  0.99076500  1.0
  Zr  Zr168  1  0.69076500  0.26051000  0.99076500  1.0
  Zr  Zr169  1  0.69076500  0.59384333  0.99076500  1.0
  Zr  Zr170  1  0.69076500  0.92717667  0.99076500  1.0
  Zr  Zr171  1  0.17409833  0.16051000  0.94076500  1.0
  Zr  Zr172  1  0.17409833  0.49384333  0.94076500  1.0
  Zr  Zr173  1  0.17409833  0.82717667  0.94076500  1.0
  Zr  Zr174  1  0.50743167  0.16051000  0.94076500  1.0
  Zr  Zr175  1  0.50743167  0.49384333  0.94076500  1.0
  Zr  Zr176  1  0.50743167  0.82717667  0.94076500  1.0
  Zr  Zr177  1  0.84076500  0.16051000  0.94076500  1.0
  Zr  Zr178  1  0.84076500  0.49384333  0.94076500  1.0
  Zr  Zr179  1  0.84076500  0.82717667  0.94076500  1.0
  Zr  Zr180  1  0.04510567  0.15471400  0.96684700  1.0
  Zr  Zr181  1  0.04510567  0.48804733  0.96684700  1.0
  Zr  Zr182  1  0.04510567  0.82138067  0.96684700  1.0
  Zr  Zr183  1  0.37843900  0.15471400  0.96684700  1.0
  Zr  Zr184  1  0.37843900  0.48804733  0.96684700  1.0
  Zr  Zr185  1  0.37843900  0.82138067  0.96684700  1.0
  Zr  Zr186  1  0.71177233  0.15471400  0.96684700  1.0
  Zr  Zr187  1  0.71177233  0.48804733  0.96684700  1.0
  Zr  Zr188  1  0.71177233  0.82138067  0.96684700  1.0
  Zr  Zr189  1  0.19510567  0.05471400  0.91684700  1.0
  Zr  Zr190  1  0.19510567  0.38804733  0.91684700  1.0
  Zr  Zr191  1  0.19510567  0.72138067  0.91684700  1.0
  Zr  Zr192  1  0.52843900  0.05471400  0.91684700  1.0
  Zr  Zr193  1  0.52843900  0.38804733  0.91684700  1.0
  Zr  Zr194  1  0.52843900  0.72138067  0.91684700  1.0
  Zr  Zr195  1  0.86177233  0.05471400  0.91684700  1.0
  Zr  Zr196  1  0.86177233  0.38804733  0.91684700  1.0
  Zr  Zr197  1  0.86177233  0.72138067  0.91684700  1.0
  Zr  Zr198  1  0.25489433  0.31195267  0.93315300  1.0
  Zr  Zr199  1  0.25489433  0.64528600  0.93315300  1.0
  Zr  Zr200  1  0.25489433  0.97861933  0.93315300  1.0
  Zr  Zr201  1  0.58822767  0.31195267  0.93315300  1.0
  Zr  Zr202  1  0.58822767  0.64528600  0.93315300  1.0
  Zr  Zr203  1  0.58822767  0.97861933  0.93315300  1.0
  Zr  Zr204  1  0.92156100  0.31195267  0.93315300  1.0
  Zr  Zr205  1  0.92156100  0.64528600  0.93315300  1.0
  Zr  Zr206  1  0.92156100  0.97861933  0.93315300  1.0
  Zr  Zr207  1  0.10489433  0.07861933  0.98315300  1.0
  Zr  Zr208  1  0.10489433  0.41195267  0.98315300  1.0
  Zr  Zr209  1  0.10489433  0.74528600  0.98315300  1.0
  Zr  Zr210  1  0.43822767  0.07861933  0.98315300  1.0
  Zr  Zr211  1  0.43822767  0.41195267  0.98315300  1.0
  Zr  Zr212  1  0.43822767  0.74528600  0.98315300  1.0
  Zr  Zr213  1  0.77156100  0.07861933  0.98315300  1.0
  Zr  Zr214  1  0.77156100  0.41195267  0.98315300  1.0
  Zr  Zr215  1  0.77156100  0.74528600  0.98315300  1.0
  Zr  Zr216  1  0.24256833  0.00615667  0.80923500  1.0
  Zr  Zr217  1  0.24256833  0.33949000  0.80923500  1.0
  Zr  Zr218  1  0.24256833  0.67282333  0.80923500  1.0
  Zr  Zr219  1  0.57590167  0.00615667  0.80923500  1.0
  Zr  Zr220  1  0.57590167  0.33949000  0.80923500  1.0
  Zr  Zr221  1  0.57590167  0.67282333  0.80923500  1.0
  Zr  Zr222  1  0.90923500  0.00615667  0.80923500  1.0
  Zr  Zr223  1  0.90923500  0.33949000  0.80923500  1.0
  Zr  Zr224  1  0.90923500  0.67282333  0.80923500  1.0
  Zr  Zr225  1  0.09256833  0.10615667  0.85923500  1.0
  Zr  Zr226  1  0.09256833  0.43949000  0.85923500  1.0
  Zr  Zr227  1  0.09256833  0.77282333  0.85923500  1.0
  Zr  Zr228  1  0.42590167  0.10615667  0.85923500  1.0
  Zr  Zr229  1  0.42590167  0.43949000  0.85923500  1.0
  Zr  Zr230  1  0.42590167  0.77282333  0.85923500  1.0
  Zr  Zr231  1  0.75923500  0.10615667  0.85923500  1.0
  Zr  Zr232  1  0.75923500  0.43949000  0.85923500  1.0
  Zr  Zr233  1  0.75923500  0.77282333  0.85923500  1.0
  Zr  Zr234  1  0.32409833  0.06051000  0.89076500  1.0
  Zr  Zr235  1  0.32409833  0.39384333  0.89076500  1.0
  Zr  Zr236  1  0.32409833  0.72717667  0.89076500  1.0
  Zr  Zr237  1  0.65743167  0.06051000  0.89076500  1.0
  Zr  Zr238  1  0.65743167  0.39384333  0.89076500  1.0
  Zr  Zr239  1  0.65743167  0.72717667  0.89076500  1.0
  Zr  Zr240  1  0.99076500  0.06051000  0.89076500  1.0
  Zr  Zr241  1  0.99076500  0.39384333  0.89076500  1.0
  Zr  Zr242  1  0.99076500  0.72717667  0.89076500  1.0
  Zr  Zr243  1  0.14076500  0.29384333  0.84076500  1.0
  Zr  Zr244  1  0.14076500  0.62717667  0.84076500  1.0
  Zr  Zr245  1  0.14076500  0.96051000  0.84076500  1.0
  Zr  Zr246  1  0.47409833  0.29384333  0.84076500  1.0
  Zr  Zr247  1  0.47409833  0.62717667  0.84076500  1.0
  Zr  Zr248  1  0.47409833  0.96051000  0.84076500  1.0
  Zr  Zr249  1  0.80743167  0.29384333  0.84076500  1.0
  Zr  Zr250  1  0.80743167  0.62717667  0.84076500  1.0
  Zr  Zr251  1  0.80743167  0.96051000  0.84076500  1.0
  Zr  Zr252  1  0.01177233  0.28804733  0.86684700  1.0
  Zr  Zr253  1  0.01177233  0.62138067  0.86684700  1.0
  Zr  Zr254  1  0.01177233  0.95471400  0.86684700  1.0
  Zr  Zr255  1  0.34510567  0.28804733  0.86684700  1.0
  Zr  Zr256  1  0.34510567  0.62138067  0.86684700  1.0
  Zr  Zr257  1  0.34510567  0.95471400  0.86684700  1.0
  Zr  Zr258  1  0.67843900  0.28804733  0.86684700  1.0
  Zr  Zr259  1  0.67843900  0.62138067  0.86684700  1.0
  Zr  Zr260  1  0.67843900  0.95471400  0.86684700  1.0
  Zr  Zr261  1  0.16177233  0.18804733  0.81684700  1.0
  Zr  Zr262  1  0.16177233  0.52138067  0.81684700  1.0
  Zr  Zr263  1  0.16177233  0.85471400  0.81684700  1.0
  Zr  Zr264  1  0.49510567  0.18804733  0.81684700  1.0
  Zr  Zr265  1  0.49510567  0.52138067  0.81684700  1.0
  Zr  Zr266  1  0.49510567  0.85471400  0.81684700  1.0
  Zr  Zr267  1  0.82843900  0.18804733  0.81684700  1.0
  Zr  Zr268  1  0.82843900  0.52138067  0.81684700  1.0
  Zr  Zr269  1  0.82843900  0.85471400  0.81684700  1.0
  Zr  Zr270  1  0.22156100  0.11195267  0.83315300  1.0
  Zr  Zr271  1  0.22156100  0.44528600  0.83315300  1.0
  Zr  Zr272  1  0.22156100  0.77861933  0.83315300  1.0
  Zr  Zr273  1  0.55489433  0.11195267  0.83315300  1.0
  Zr  Zr274  1  0.55489433  0.44528600  0.83315300  1.0
  Zr  Zr275  1  0.55489433  0.77861933  0.83315300  1.0
  Zr  Zr276  1  0.88822767  0.11195267  0.83315300  1.0
  Zr  Zr277  1  0.88822767  0.44528600  0.83315300  1.0
  Zr  Zr278  1  0.88822767  0.77861933  0.83315300  1.0
  Zr  Zr279  1  0.07156100  0.21195267  0.88315300  1.0
  Zr  Zr280  1  0.07156100  0.54528600  0.88315300  1.0
  Zr  Zr281  1  0.07156100  0.87861933  0.88315300  1.0
  Zr  Zr282  1  0.40489433  0.21195267  0.88315300  1.0
  Zr  Zr283  1  0.40489433  0.54528600  0.88315300  1.0
  Zr  Zr284  1  0.40489433  0.87861933  0.88315300  1.0
  Zr  Zr285  1  0.73822767  0.21195267  0.88315300  1.0
  Zr  Zr286  1  0.73822767  0.54528600  0.88315300  1.0
  Zr  Zr287  1  0.73822767  0.87861933  0.88315300  1.0
  Zr  Zr288  1  0.20923500  0.13949000  0.70923500  1.0
  Zr  Zr289  1  0.20923500  0.47282333  0.70923500  1.0
  Zr  Zr290  1  0.20923500  0.80615667  0.70923500  1.0
  Zr  Zr291  1  0.54256833  0.13949000  0.70923500  1.0
  Zr  Zr292  1  0.54256833  0.47282333  0.70923500  1.0
  Zr  Zr293  1  0.54256833  0.80615667  0.70923500  1.0
  Zr  Zr294  1  0.87590167  0.13949000  0.70923500  1.0
  Zr  Zr295  1  0.87590167  0.47282333  0.70923500  1.0
  Zr  Zr296  1  0.87590167  0.80615667  0.70923500  1.0
  Zr  Zr297  1  0.05923500  0.23949000  0.75923500  1.0
  Zr  Zr298  1  0.05923500  0.57282333  0.75923500  1.0
  Zr  Zr299  1  0.05923500  0.90615667  0.75923500  1.0
  Zr  Zr300  1  0.39256833  0.23949000  0.75923500  1.0
  Zr  Zr301  1  0.39256833  0.57282333  0.75923500  1.0
  Zr  Zr302  1  0.39256833  0.90615667  0.75923500  1.0
  Zr  Zr303  1  0.72590167  0.23949000  0.75923500  1.0
  Zr  Zr304  1  0.72590167  0.57282333  0.75923500  1.0
  Zr  Zr305  1  0.72590167  0.90615667  0.75923500  1.0
  Zr  Zr306  1  0.29076500  0.19384333  0.79076500  1.0
  Zr  Zr307  1  0.29076500  0.52717667  0.79076500  1.0
  Zr  Zr308  1  0.29076500  0.86051000  0.79076500  1.0
  Zr  Zr309  1  0.62409833  0.19384333  0.79076500  1.0
  Zr  Zr310  1  0.62409833  0.52717667  0.79076500  1.0
  Zr  Zr311  1  0.62409833  0.86051000  0.79076500  1.0
  Zr  Zr312  1  0.95743167  0.19384333  0.79076500  1.0
  Zr  Zr313  1  0.95743167  0.52717667  0.79076500  1.0
  Zr  Zr314  1  0.95743167  0.86051000  0.79076500  1.0
  Zr  Zr315  1  0.10743167  0.09384333  0.74076500  1.0
  Zr  Zr316  1  0.10743167  0.42717667  0.74076500  1.0
  Zr  Zr317  1  0.10743167  0.76051000  0.74076500  1.0
  Zr  Zr318  1  0.44076500  0.09384333  0.74076500  1.0
  Zr  Zr319  1  0.44076500  0.42717667  0.74076500  1.0
  Zr  Zr320  1  0.44076500  0.76051000  0.74076500  1.0
  Zr  Zr321  1  0.77409833  0.09384333  0.74076500  1.0
  Zr  Zr322  1  0.77409833  0.42717667  0.74076500  1.0
  Zr  Zr323  1  0.77409833  0.76051000  0.74076500  1.0
  Zr  Zr324  1  0.31177233  0.08804733  0.76684700  1.0
  Zr  Zr325  1  0.31177233  0.42138067  0.76684700  1.0
  Zr  Zr326  1  0.31177233  0.75471400  0.76684700  1.0
  Zr  Zr327  1  0.64510567  0.08804733  0.76684700  1.0
  Zr  Zr328  1  0.64510567  0.42138067  0.76684700  1.0
  Zr  Zr329  1  0.64510567  0.75471400  0.76684700  1.0
  Zr  Zr330  1  0.97843900  0.08804733  0.76684700  1.0
  Zr  Zr331  1  0.97843900  0.42138067  0.76684700  1.0
  Zr  Zr332  1  0.97843900  0.75471400  0.76684700  1.0
  Zr  Zr333  1  0.12843900  0.32138067  0.71684700  1.0
  Zr  Zr334  1  0.12843900  0.65471400  0.71684700  1.0
  Zr  Zr335  1  0.12843900  0.98804733  0.71684700  1.0
  Zr  Zr336  1  0.46177233  0.32138067  0.71684700  1.0
  Zr  Zr337  1  0.46177233  0.65471400  0.71684700  1.0
  Zr  Zr338  1  0.46177233  0.98804733  0.71684700  1.0
  Zr  Zr339  1  0.79510567  0.32138067  0.71684700  1.0
  Zr  Zr340  1  0.79510567  0.65471400  0.71684700  1.0
  Zr  Zr341  1  0.79510567  0.98804733  0.71684700  1.0
  Zr  Zr342  1  0.18822767  0.24528600  0.73315300  1.0
  Zr  Zr343  1  0.18822767  0.57861933  0.73315300  1.0
  Zr  Zr344  1  0.18822767  0.91195267  0.73315300  1.0
  Zr  Zr345  1  0.52156100  0.24528600  0.73315300  1.0
  Zr  Zr346  1  0.52156100  0.57861933  0.73315300  1.0
  Zr  Zr347  1  0.52156100  0.91195267  0.73315300  1.0
  Zr  Zr348  1  0.85489433  0.24528600  0.73315300  1.0
  Zr  Zr349  1  0.85489433  0.57861933  0.73315300  1.0
  Zr  Zr350  1  0.85489433  0.91195267  0.73315300  1.0
  Zr  Zr351  1  0.03822767  0.01195267  0.78315300  1.0
  Zr  Zr352  1  0.03822767  0.34528600  0.78315300  1.0
  Zr  Zr353  1  0.03822767  0.67861933  0.78315300  1.0
  Zr  Zr354  1  0.37156100  0.01195267  0.78315300  1.0
  Zr  Zr355  1  0.37156100  0.34528600  0.78315300  1.0
  Zr  Zr356  1  0.37156100  0.67861933  0.78315300  1.0
  Zr  Zr357  1  0.70489433  0.01195267  0.78315300  1.0
  Zr  Zr358  1  0.70489433  0.34528600  0.78315300  1.0
  Zr  Zr359  1  0.70489433  0.67861933  0.78315300  1.0
  Zr  Zr360  1  0.17590167  0.27282333  0.60923500  1.0
  Zr  Zr361  1  0.17590167  0.60615667  0.60923500  1.0
  Zr  Zr362  1  0.17590167  0.93949000  0.60923500  1.0
  Zr  Zr363  1  0.50923500  0.27282333  0.60923500  1.0
  Zr  Zr364  1  0.50923500  0.60615667  0.60923500  1.0
  Zr  Zr365  1  0.50923500  0.93949000  0.60923500  1.0
  Zr  Zr366  1  0.84256833  0.27282333  0.60923500  1.0
  Zr  Zr367  1  0.84256833  0.60615667  0.60923500  1.0
  Zr  Zr368  1  0.84256833  0.93949000  0.60923500  1.0
  Zr  Zr369  1  0.02590167  0.03949000  0.65923500  1.0
  Zr  Zr370  1  0.02590167  0.37282333  0.65923500  1.0
  Zr  Zr371  1  0.02590167  0.70615667  0.65923500  1.0
  Zr  Zr372  1  0.35923500  0.03949000  0.65923500  1.0
  Zr  Zr373  1  0.35923500  0.37282333  0.65923500  1.0
  Zr  Zr374  1  0.35923500  0.70615667  0.65923500  1.0
  Zr  Zr375  1  0.69256833  0.03949000  0.65923500  1.0
  Zr  Zr376  1  0.69256833  0.37282333  0.65923500  1.0
  Zr  Zr377  1  0.69256833  0.70615667  0.65923500  1.0
  Zr  Zr378  1  0.25743167  0.32717667  0.69076500  1.0
  Zr  Zr379  1  0.25743167  0.66051000  0.69076500  1.0
  Zr  Zr380  1  0.25743167  0.99384333  0.69076500  1.0
  Zr  Zr381  1  0.59076500  0.32717667  0.69076500  1.0
  Zr  Zr382  1  0.59076500  0.66051000  0.69076500  1.0
  Zr  Zr383  1  0.59076500  0.99384333  0.69076500  1.0
  Zr  Zr384  1  0.92409833  0.32717667  0.69076500  1.0
  Zr  Zr385  1  0.92409833  0.66051000  0.69076500  1.0
  Zr  Zr386  1  0.92409833  0.99384333  0.69076500  1.0
  Zr  Zr387  1  0.07409833  0.22717667  0.64076500  1.0
  Zr  Zr388  1  0.07409833  0.56051000  0.64076500  1.0
  Zr  Zr389  1  0.07409833  0.89384333  0.64076500  1.0
  Zr  Zr390  1  0.40743167  0.22717667  0.64076500  1.0
  Zr  Zr391  1  0.40743167  0.56051000  0.64076500  1.0
  Zr  Zr392  1  0.40743167  0.89384333  0.64076500  1.0
  Zr  Zr393  1  0.74076500  0.22717667  0.64076500  1.0
  Zr  Zr394  1  0.74076500  0.56051000  0.64076500  1.0
  Zr  Zr395  1  0.74076500  0.89384333  0.64076500  1.0
  Zr  Zr396  1  0.27843900  0.22138067  0.66684700  1.0
  Zr  Zr397  1  0.27843900  0.55471400  0.66684700  1.0
  Zr  Zr398  1  0.27843900  0.88804733  0.66684700  1.0
  Zr  Zr399  1  0.61177233  0.22138067  0.66684700  1.0
  Zr  Zr400  1  0.61177233  0.55471400  0.66684700  1.0
  Zr  Zr401  1  0.61177233  0.88804733  0.66684700  1.0
  Zr  Zr402  1  0.94510567  0.22138067  0.66684700  1.0
  Zr  Zr403  1  0.94510567  0.55471400  0.66684700  1.0
  Zr  Zr404  1  0.94510567  0.88804733  0.66684700  1.0
  Zr  Zr405  1  0.09510567  0.12138067  0.61684700  1.0
  Zr  Zr406  1  0.09510567  0.45471400  0.61684700  1.0
  Zr  Zr407  1  0.09510567  0.78804733  0.61684700  1.0
  Zr  Zr408  1  0.42843900  0.12138067  0.61684700  1.0
  Zr  Zr409  1  0.42843900  0.45471400  0.61684700  1.0
  Zr  Zr410  1  0.42843900  0.78804733  0.61684700  1.0
  Zr  Zr411  1  0.76177233  0.12138067  0.61684700  1.0
  Zr  Zr412  1  0.76177233  0.45471400  0.61684700  1.0
  Zr  Zr413  1  0.76177233  0.78804733  0.61684700  1.0
  Zr  Zr414  1  0.15489433  0.04528600  0.63315300  1.0
  Zr  Zr415  1  0.15489433  0.37861933  0.63315300  1.0
  Zr  Zr416  1  0.15489433  0.71195267  0.63315300  1.0
  Zr  Zr417  1  0.48822767  0.04528600  0.63315300  1.0
  Zr  Zr418  1  0.48822767  0.37861933  0.63315300  1.0
  Zr  Zr419  1  0.48822767  0.71195267  0.63315300  1.0
  Zr  Zr420  1  0.82156100  0.04528600  0.63315300  1.0
  Zr  Zr421  1  0.82156100  0.37861933  0.63315300  1.0
  Zr  Zr422  1  0.82156100  0.71195267  0.63315300  1.0
  Zr  Zr423  1  0.00489433  0.14528600  0.68315300  1.0
  Zr  Zr424  1  0.00489433  0.47861933  0.68315300  1.0
  Zr  Zr425  1  0.00489433  0.81195267  0.68315300  1.0
  Zr  Zr426  1  0.33822767  0.14528600  0.68315300  1.0
  Zr  Zr427  1  0.33822767  0.47861933  0.68315300  1.0
  Zr  Zr428  1  0.33822767  0.81195267  0.68315300  1.0
  Zr  Zr429  1  0.67156100  0.14528600  0.68315300  1.0
  Zr  Zr430  1  0.67156100  0.47861933  0.68315300  1.0
  Zr  Zr431  1  0.67156100  0.81195267  0.68315300  1.0
