# generated using pymatgen
data_Zr2Ni7
_symmetry_space_group_name_H-M   'P 1'
_cell_length_a   25.12839907
_cell_length_b   31.07850779
_cell_length_c   27.47133721
_cell_angle_alpha   96.08300622
_cell_angle_beta   96.91545978
_cell_angle_gamma   96.45597563
_symmetry_Int_Tables_number   1
_chemical_formula_structural   Zr2Ni7
_chemical_formula_sum   'Zr144 Ni504'
_cell_volume   21006.80577105
_cell_formula_units_Z   72
loop_
 _symmetry_equiv_pos_site_id
 _symmetry_equiv_pos_as_xyz
  1  'x, y, z'
loop_
 _atom_site_type_symbol
 _atom_site_label
 _atom_site_symmetry_multiplicity
 _atom_site_fract_x
 _atom_site_fract_y
 _atom_site_fract_z
 _atom_site_occupancy
  Ni  Ni0  1  0.09351823  0.27036980  0.01527735  1.0
  Ni  Ni1  1  0.09351823  0.60370313  0.01527735  1.0
  Ni  Ni2  1  0.09351823  0.93703647  0.01527735  1.0
  Ni  Ni3  1  0.42685157  0.27036980  0.01527735  1.0
  Ni  Ni4  1  0.42685157  0.60370313  0.01527735  1.0
  Ni  Ni5  1  0.42685157  0.93703647  0.01527735  1.0
  Ni  Ni6  1  0.76018490  0.27036980  0.01527735  1.0
  Ni  Ni7  1  0.76018490  0.60370313  0.01527735  1.0
  Ni  Ni8  1  0.76018490  0.93703647  0.01527735  1.0
  Ni  Ni9  1  0.29351823  0.17036980  0.06527735  1.0
  Ni  Ni10  1  0.29351823  0.50370313  0.06527735  1.0
  Ni  Ni11  1  0.29351823  0.83703647  0.06527735  1.0
  Ni  Ni12  1  0.62685157  0.17036980  0.06527735  1.0
  Ni  Ni13  1  0.62685157  0.50370313  0.06527735  1.0
  Ni  Ni14  1  0.62685157  0.83703647  0.06527735  1.0
  Ni  Ni15  1  0.96018490  0.17036980  0.06527735  1.0
  Ni  Ni16  1  0.96018490  0.50370313  0.06527735  1.0
  Ni  Ni17  1  0.96018490  0.83703647  0.06527735  1.0
  Ni  Ni18  1  0.26640437  0.23921340  0.03741805  1.0
  Ni  Ni19  1  0.26640437  0.57254673  0.03741805  1.0
  Ni  Ni20  1  0.26640437  0.90588007  0.03741805  1.0
  Ni  Ni21  1  0.59973770  0.23921340  0.03741805  1.0
  Ni  Ni22  1  0.59973770  0.57254673  0.03741805  1.0
  Ni  Ni23  1  0.59973770  0.90588007  0.03741805  1.0
  Ni  Ni24  1  0.93307103  0.23921340  0.03741805  1.0
  Ni  Ni25  1  0.93307103  0.57254673  0.03741805  1.0
  Ni  Ni26  1  0.93307103  0.90588007  0.03741805  1.0
  Ni  Ni27  1  0.13307103  0.13921340  0.08741805  1.0
  Ni  Ni28  1  0.13307103  0.47254673  0.08741805  1.0
  Ni  Ni29  1  0.13307103  0.80588007  0.08741805  1.0
  Ni  Ni30  1  0.46640437  0.13921340  0.08741805  1.0
  Ni  Ni31  1  0.46640437  0.47254673  0.08741805  1.0
  Ni  Ni32  1  0.46640437  0.80588007  0.08741805  1.0
  Ni  Ni33  1  0.79973770  0.13921340  0.08741805  1.0
  Ni  Ni34  1  0.79973770  0.47254673  0.08741805  1.0
  Ni  Ni35  1  0.79973770  0.80588007  0.08741805  1.0
  Ni  Ni36  1  0.32030943  0.04559420  0.00972265  1.0
  Ni  Ni37  1  0.32030943  0.37892753  0.00972265  1.0
  Ni  Ni38  1  0.32030943  0.71226087  0.00972265  1.0
  Ni  Ni39  1  0.65364277  0.04559420  0.00972265  1.0
  Ni  Ni40  1  0.65364277  0.37892753  0.00972265  1.0
  Ni  Ni41  1  0.65364277  0.71226087  0.00972265  1.0
  Ni  Ni42  1  0.98697610  0.04559420  0.00972265  1.0
  Ni  Ni43  1  0.98697610  0.37892753  0.00972265  1.0
  Ni  Ni44  1  0.98697610  0.71226087  0.00972265  1.0
  Ni  Ni45  1  0.18697610  0.27892753  0.05972265  1.0
  Ni  Ni46  1  0.18697610  0.61226087  0.05972265  1.0
  Ni  Ni47  1  0.18697610  0.94559420  0.05972265  1.0
  Ni  Ni48  1  0.52030943  0.27892753  0.05972265  1.0
  Ni  Ni49  1  0.52030943  0.61226087  0.05972265  1.0
  Ni  Ni50  1  0.52030943  0.94559420  0.05972265  1.0
  Ni  Ni51  1  0.85364277  0.27892753  0.05972265  1.0
  Ni  Ni52  1  0.85364277  0.61226087  0.05972265  1.0
  Ni  Ni53  1  0.85364277  0.94559420  0.05972265  1.0
  Ni  Ni54  1  0.12063210  0.20152620  0.04313665  1.0
  Ni  Ni55  1  0.12063210  0.53485953  0.04313665  1.0
  Ni  Ni56  1  0.12063210  0.86819287  0.04313665  1.0
  Ni  Ni57  1  0.45396543  0.20152620  0.04313665  1.0
  Ni  Ni58  1  0.45396543  0.53485953  0.04313665  1.0
  Ni  Ni59  1  0.45396543  0.86819287  0.04313665  1.0
  Ni  Ni60  1  0.78729877  0.20152620  0.04313665  1.0
  Ni  Ni61  1  0.78729877  0.53485953  0.04313665  1.0
  Ni  Ni62  1  0.78729877  0.86819287  0.04313665  1.0
  Ni  Ni63  1  0.32063210  0.10152620  0.09313665  1.0
  Ni  Ni64  1  0.32063210  0.43485953  0.09313665  1.0
  Ni  Ni65  1  0.32063210  0.76819287  0.09313665  1.0
  Ni  Ni66  1  0.65396543  0.10152620  0.09313665  1.0
  Ni  Ni67  1  0.65396543  0.43485953  0.09313665  1.0
  Ni  Ni68  1  0.65396543  0.76819287  0.09313665  1.0
  Ni  Ni69  1  0.98729877  0.10152620  0.09313665  1.0
  Ni  Ni70  1  0.98729877  0.43485953  0.09313665  1.0
  Ni  Ni71  1  0.98729877  0.76819287  0.09313665  1.0
  Ni  Ni72  1  0.06672703  0.06181207  0.07083205  1.0
  Ni  Ni73  1  0.06672703  0.39514540  0.07083205  1.0
  Ni  Ni74  1  0.06672703  0.72847873  0.07083205  1.0
  Ni  Ni75  1  0.40006037  0.06181207  0.07083205  1.0
  Ni  Ni76  1  0.40006037  0.39514540  0.07083205  1.0
  Ni  Ni77  1  0.40006037  0.72847873  0.07083205  1.0
  Ni  Ni78  1  0.73339370  0.06181207  0.07083205  1.0
  Ni  Ni79  1  0.73339370  0.39514540  0.07083205  1.0
  Ni  Ni80  1  0.73339370  0.72847873  0.07083205  1.0
  Ni  Ni81  1  0.20006037  0.16181207  0.02083205  1.0
  Ni  Ni82  1  0.20006037  0.49514540  0.02083205  1.0
  Ni  Ni83  1  0.20006037  0.82847873  0.02083205  1.0
  Ni  Ni84  1  0.53339370  0.16181207  0.02083205  1.0
  Ni  Ni85  1  0.53339370  0.49514540  0.02083205  1.0
  Ni  Ni86  1  0.53339370  0.82847873  0.02083205  1.0
  Ni  Ni87  1  0.86672703  0.16181207  0.02083205  1.0
  Ni  Ni88  1  0.86672703  0.49514540  0.02083205  1.0
  Ni  Ni89  1  0.86672703  0.82847873  0.02083205  1.0
  Ni  Ni90  1  0.02685157  0.22036980  0.04027735  1.0
  Ni  Ni91  1  0.02685157  0.55370313  0.04027735  1.0
  Ni  Ni92  1  0.02685157  0.88703647  0.04027735  1.0
  Ni  Ni93  1  0.36018490  0.22036980  0.04027735  1.0
  Ni  Ni94  1  0.36018490  0.55370313  0.04027735  1.0
  Ni  Ni95  1  0.36018490  0.88703647  0.04027735  1.0
  Ni  Ni96  1  0.69351823  0.22036980  0.04027735  1.0
  Ni  Ni97  1  0.69351823  0.55370313  0.04027735  1.0
  Ni  Ni98  1  0.69351823  0.88703647  0.04027735  1.0
  Ni  Ni99  1  0.22685157  0.12036980  0.09027735  1.0
  Ni  Ni100  1  0.22685157  0.45370313  0.09027735  1.0
  Ni  Ni101  1  0.22685157  0.78703647  0.09027735  1.0
  Ni  Ni102  1  0.56018490  0.12036980  0.09027735  1.0
  Ni  Ni103  1  0.56018490  0.45370313  0.09027735  1.0
  Ni  Ni104  1  0.56018490  0.78703647  0.09027735  1.0
  Ni  Ni105  1  0.89351823  0.12036980  0.09027735  1.0
  Ni  Ni106  1  0.89351823  0.45370313  0.09027735  1.0
  Ni  Ni107  1  0.89351823  0.78703647  0.09027735  1.0
  Ni  Ni108  1  0.12685157  0.00370313  0.06527735  1.0
  Ni  Ni109  1  0.12685157  0.33703647  0.06527735  1.0
  Ni  Ni110  1  0.12685157  0.67036980  0.06527735  1.0
  Ni  Ni111  1  0.46018490  0.00370313  0.06527735  1.0
  Ni  Ni112  1  0.46018490  0.33703647  0.06527735  1.0
  Ni  Ni113  1  0.46018490  0.67036980  0.06527735  1.0
  Ni  Ni114  1  0.79351823  0.00370313  0.06527735  1.0
  Ni  Ni115  1  0.79351823  0.33703647  0.06527735  1.0
  Ni  Ni116  1  0.79351823  0.67036980  0.06527735  1.0
  Ni  Ni117  1  0.26018490  0.10370313  0.01527735  1.0
  Ni  Ni118  1  0.26018490  0.43703647  0.01527735  1.0
  Ni  Ni119  1  0.26018490  0.77036980  0.01527735  1.0
  Ni  Ni120  1  0.59351823  0.10370313  0.01527735  1.0
  Ni  Ni121  1  0.59351823  0.43703647  0.01527735  1.0
  Ni  Ni122  1  0.59351823  0.77036980  0.01527735  1.0
  Ni  Ni123  1  0.92685157  0.10370313  0.01527735  1.0
  Ni  Ni124  1  0.92685157  0.43703647  0.01527735  1.0
  Ni  Ni125  1  0.92685157  0.77036980  0.01527735  1.0
  Ni  Ni126  1  0.16018490  0.07036980  0.11527735  1.0
  Ni  Ni127  1  0.16018490  0.40370313  0.11527735  1.0
  Ni  Ni128  1  0.16018490  0.73703647  0.11527735  1.0
  Ni  Ni129  1  0.49351823  0.07036980  0.11527735  1.0
  Ni  Ni130  1  0.49351823  0.40370313  0.11527735  1.0
  Ni  Ni131  1  0.49351823  0.73703647  0.11527735  1.0
  Ni  Ni132  1  0.82685157  0.07036980  0.11527735  1.0
  Ni  Ni133  1  0.82685157  0.40370313  0.11527735  1.0
  Ni  Ni134  1  0.82685157  0.73703647  0.11527735  1.0
  Ni  Ni135  1  0.02685157  0.30370313  0.16527735  1.0
  Ni  Ni136  1  0.02685157  0.63703647  0.16527735  1.0
  Ni  Ni137  1  0.02685157  0.97036980  0.16527735  1.0
  Ni  Ni138  1  0.36018490  0.30370313  0.16527735  1.0
  Ni  Ni139  1  0.36018490  0.63703647  0.16527735  1.0
  Ni  Ni140  1  0.36018490  0.97036980  0.16527735  1.0
  Ni  Ni141  1  0.69351823  0.30370313  0.16527735  1.0
  Ni  Ni142  1  0.69351823  0.63703647  0.16527735  1.0
  Ni  Ni143  1  0.69351823  0.97036980  0.16527735  1.0
  Ni  Ni144  1  0.33307103  0.03921340  0.13741805  1.0
  Ni  Ni145  1  0.33307103  0.37254673  0.13741805  1.0
  Ni  Ni146  1  0.33307103  0.70588007  0.13741805  1.0
  Ni  Ni147  1  0.66640437  0.03921340  0.13741805  1.0
  Ni  Ni148  1  0.66640437  0.37254673  0.13741805  1.0
  Ni  Ni149  1  0.66640437  0.70588007  0.13741805  1.0
  Ni  Ni150  1  0.99973770  0.03921340  0.13741805  1.0
  Ni  Ni151  1  0.99973770  0.37254673  0.13741805  1.0
  Ni  Ni152  1  0.99973770  0.70588007  0.13741805  1.0
  Ni  Ni153  1  0.19973770  0.27254673  0.18741805  1.0
  Ni  Ni154  1  0.19973770  0.60588007  0.18741805  1.0
  Ni  Ni155  1  0.19973770  0.93921340  0.18741805  1.0
  Ni  Ni156  1  0.53307103  0.27254673  0.18741805  1.0
  Ni  Ni157  1  0.53307103  0.60588007  0.18741805  1.0
  Ni  Ni158  1  0.53307103  0.93921340  0.18741805  1.0
  Ni  Ni159  1  0.86640437  0.27254673  0.18741805  1.0
  Ni  Ni160  1  0.86640437  0.60588007  0.18741805  1.0
  Ni  Ni161  1  0.86640437  0.93921340  0.18741805  1.0
  Ni  Ni162  1  0.05364277  0.17892753  0.10972265  1.0
  Ni  Ni163  1  0.05364277  0.51226087  0.10972265  1.0
  Ni  Ni164  1  0.05364277  0.84559420  0.10972265  1.0
  Ni  Ni165  1  0.38697610  0.17892753  0.10972265  1.0
  Ni  Ni166  1  0.38697610  0.51226087  0.10972265  1.0
  Ni  Ni167  1  0.38697610  0.84559420  0.10972265  1.0
  Ni  Ni168  1  0.72030943  0.17892753  0.10972265  1.0
  Ni  Ni169  1  0.72030943  0.51226087  0.10972265  1.0
  Ni  Ni170  1  0.72030943  0.84559420  0.10972265  1.0
  Ni  Ni171  1  0.25364277  0.07892753  0.15972265  1.0
  Ni  Ni172  1  0.25364277  0.41226087  0.15972265  1.0
  Ni  Ni173  1  0.25364277  0.74559420  0.15972265  1.0
  Ni  Ni174  1  0.58697610  0.07892753  0.15972265  1.0
  Ni  Ni175  1  0.58697610  0.41226087  0.15972265  1.0
  Ni  Ni176  1  0.58697610  0.74559420  0.15972265  1.0
  Ni  Ni177  1  0.92030943  0.07892753  0.15972265  1.0
  Ni  Ni178  1  0.92030943  0.41226087  0.15972265  1.0
  Ni  Ni179  1  0.92030943  0.74559420  0.15972265  1.0
  Ni  Ni180  1  0.18729877  0.00152620  0.14313665  1.0
  Ni  Ni181  1  0.18729877  0.33485953  0.14313665  1.0
  Ni  Ni182  1  0.18729877  0.66819287  0.14313665  1.0
  Ni  Ni183  1  0.52063210  0.00152620  0.14313665  1.0
  Ni  Ni184  1  0.52063210  0.33485953  0.14313665  1.0
  Ni  Ni185  1  0.52063210  0.66819287  0.14313665  1.0
  Ni  Ni186  1  0.85396543  0.00152620  0.14313665  1.0
  Ni  Ni187  1  0.85396543  0.33485953  0.14313665  1.0
  Ni  Ni188  1  0.85396543  0.66819287  0.14313665  1.0
  Ni  Ni189  1  0.05396543  0.23485953  0.19313665  1.0
  Ni  Ni190  1  0.05396543  0.56819287  0.19313665  1.0
  Ni  Ni191  1  0.05396543  0.90152620  0.19313665  1.0
  Ni  Ni192  1  0.38729877  0.23485953  0.19313665  1.0
  Ni  Ni193  1  0.38729877  0.56819287  0.19313665  1.0
  Ni  Ni194  1  0.38729877  0.90152620  0.19313665  1.0
  Ni  Ni195  1  0.72063210  0.23485953  0.19313665  1.0
  Ni  Ni196  1  0.72063210  0.56819287  0.19313665  1.0
  Ni  Ni197  1  0.72063210  0.90152620  0.19313665  1.0
  Ni  Ni198  1  0.13339370  0.19514540  0.17083205  1.0
  Ni  Ni199  1  0.13339370  0.52847873  0.17083205  1.0
  Ni  Ni200  1  0.13339370  0.86181207  0.17083205  1.0
  Ni  Ni201  1  0.46672703  0.19514540  0.17083205  1.0
  Ni  Ni202  1  0.46672703  0.52847873  0.17083205  1.0
  Ni  Ni203  1  0.46672703  0.86181207  0.17083205  1.0
  Ni  Ni204  1  0.80006037  0.19514540  0.17083205  1.0
  Ni  Ni205  1  0.80006037  0.52847873  0.17083205  1.0
  Ni  Ni206  1  0.80006037  0.86181207  0.17083205  1.0
  Ni  Ni207  1  0.26672703  0.29514540  0.12083205  1.0
  Ni  Ni208  1  0.26672703  0.62847873  0.12083205  1.0
  Ni  Ni209  1  0.26672703  0.96181207  0.12083205  1.0
  Ni  Ni210  1  0.60006037  0.29514540  0.12083205  1.0
  Ni  Ni211  1  0.60006037  0.62847873  0.12083205  1.0
  Ni  Ni212  1  0.60006037  0.96181207  0.12083205  1.0
  Ni  Ni213  1  0.93339370  0.29514540  0.12083205  1.0
  Ni  Ni214  1  0.93339370  0.62847873  0.12083205  1.0
  Ni  Ni215  1  0.93339370  0.96181207  0.12083205  1.0
  Ni  Ni216  1  0.09351823  0.02036980  0.14027735  1.0
  Ni  Ni217  1  0.09351823  0.35370313  0.14027735  1.0
  Ni  Ni218  1  0.09351823  0.68703647  0.14027735  1.0
  Ni  Ni219  1  0.42685157  0.02036980  0.14027735  1.0
  Ni  Ni220  1  0.42685157  0.35370313  0.14027735  1.0
  Ni  Ni221  1  0.42685157  0.68703647  0.14027735  1.0
  Ni  Ni222  1  0.76018490  0.02036980  0.14027735  1.0
  Ni  Ni223  1  0.76018490  0.35370313  0.14027735  1.0
  Ni  Ni224  1  0.76018490  0.68703647  0.14027735  1.0
  Ni  Ni225  1  0.29351823  0.25370313  0.19027735  1.0
  Ni  Ni226  1  0.29351823  0.58703647  0.19027735  1.0
  Ni  Ni227  1  0.29351823  0.92036980  0.19027735  1.0
  Ni  Ni228  1  0.62685157  0.25370313  0.19027735  1.0
  Ni  Ni229  1  0.62685157  0.58703647  0.19027735  1.0
  Ni  Ni230  1  0.62685157  0.92036980  0.19027735  1.0
  Ni  Ni231  1  0.96018490  0.25370313  0.19027735  1.0
  Ni  Ni232  1  0.96018490  0.58703647  0.19027735  1.0
  Ni  Ni233  1  0.96018490  0.92036980  0.19027735  1.0
  Ni  Ni234  1  0.19351823  0.13703647  0.16527735  1.0
  Ni  Ni235  1  0.19351823  0.47036980  0.16527735  1.0
  Ni  Ni236  1  0.19351823  0.80370313  0.16527735  1.0
  Ni  Ni237  1  0.52685157  0.13703647  0.16527735  1.0
  Ni  Ni238  1  0.52685157  0.47036980  0.16527735  1.0
  Ni  Ni239  1  0.52685157  0.80370313  0.16527735  1.0
  Ni  Ni240  1  0.86018490  0.13703647  0.16527735  1.0
  Ni  Ni241  1  0.86018490  0.47036980  0.16527735  1.0
  Ni  Ni242  1  0.86018490  0.80370313  0.16527735  1.0
  Ni  Ni243  1  0.32685157  0.23703647  0.11527735  1.0
  Ni  Ni244  1  0.32685157  0.57036980  0.11527735  1.0
  Ni  Ni245  1  0.32685157  0.90370313  0.11527735  1.0
  Ni  Ni246  1  0.66018490  0.23703647  0.11527735  1.0
  Ni  Ni247  1  0.66018490  0.57036980  0.11527735  1.0
  Ni  Ni248  1  0.66018490  0.90370313  0.11527735  1.0
  Ni  Ni249  1  0.99351823  0.23703647  0.11527735  1.0
  Ni  Ni250  1  0.99351823  0.57036980  0.11527735  1.0
  Ni  Ni251  1  0.99351823  0.90370313  0.11527735  1.0
  Ni  Ni252  1  0.22685157  0.20370313  0.21527735  1.0
  Ni  Ni253  1  0.22685157  0.53703647  0.21527735  1.0
  Ni  Ni254  1  0.22685157  0.87036980  0.21527735  1.0
  Ni  Ni255  1  0.56018490  0.20370313  0.21527735  1.0
  Ni  Ni256  1  0.56018490  0.53703647  0.21527735  1.0
  Ni  Ni257  1  0.56018490  0.87036980  0.21527735  1.0
  Ni  Ni258  1  0.89351823  0.20370313  0.21527735  1.0
  Ni  Ni259  1  0.89351823  0.53703647  0.21527735  1.0
  Ni  Ni260  1  0.89351823  0.87036980  0.21527735  1.0
  Ni  Ni261  1  0.09351823  0.10370313  0.26527735  1.0
  Ni  Ni262  1  0.09351823  0.43703647  0.26527735  1.0
  Ni  Ni263  1  0.09351823  0.77036980  0.26527735  1.0
  Ni  Ni264  1  0.42685157  0.10370313  0.26527735  1.0
  Ni  Ni265  1  0.42685157  0.43703647  0.26527735  1.0
  Ni  Ni266  1  0.42685157  0.77036980  0.26527735  1.0
  Ni  Ni267  1  0.76018490  0.10370313  0.26527735  1.0
  Ni  Ni268  1  0.76018490  0.43703647  0.26527735  1.0
  Ni  Ni269  1  0.76018490  0.77036980  0.26527735  1.0
  Ni  Ni270  1  0.06640437  0.17254673  0.23741805  1.0
  Ni  Ni271  1  0.06640437  0.50588007  0.23741805  1.0
  Ni  Ni272  1  0.06640437  0.83921340  0.23741805  1.0
  Ni  Ni273  1  0.39973770  0.17254673  0.23741805  1.0
  Ni  Ni274  1  0.39973770  0.50588007  0.23741805  1.0
  Ni  Ni275  1  0.39973770  0.83921340  0.23741805  1.0
  Ni  Ni276  1  0.73307103  0.17254673  0.23741805  1.0
  Ni  Ni277  1  0.73307103  0.50588007  0.23741805  1.0
  Ni  Ni278  1  0.73307103  0.83921340  0.23741805  1.0
  Ni  Ni279  1  0.26640437  0.07254673  0.28741805  1.0
  Ni  Ni280  1  0.26640437  0.40588007  0.28741805  1.0
  Ni  Ni281  1  0.26640437  0.73921340  0.28741805  1.0
  Ni  Ni282  1  0.59973770  0.07254673  0.28741805  1.0
  Ni  Ni283  1  0.59973770  0.40588007  0.28741805  1.0
  Ni  Ni284  1  0.59973770  0.73921340  0.28741805  1.0
  Ni  Ni285  1  0.93307103  0.07254673  0.28741805  1.0
  Ni  Ni286  1  0.93307103  0.40588007  0.28741805  1.0
  Ni  Ni287  1  0.93307103  0.73921340  0.28741805  1.0
  Ni  Ni288  1  0.12030943  0.31226087  0.20972265  1.0
  Ni  Ni289  1  0.12030943  0.64559420  0.20972265  1.0
  Ni  Ni290  1  0.12030943  0.97892753  0.20972265  1.0
  Ni  Ni291  1  0.45364277  0.31226087  0.20972265  1.0
  Ni  Ni292  1  0.45364277  0.64559420  0.20972265  1.0
  Ni  Ni293  1  0.45364277  0.97892753  0.20972265  1.0
  Ni  Ni294  1  0.78697610  0.31226087  0.20972265  1.0
  Ni  Ni295  1  0.78697610  0.64559420  0.20972265  1.0
  Ni  Ni296  1  0.78697610  0.97892753  0.20972265  1.0
  Ni  Ni297  1  0.32030943  0.21226087  0.25972265  1.0
  Ni  Ni298  1  0.32030943  0.54559420  0.25972265  1.0
  Ni  Ni299  1  0.32030943  0.87892753  0.25972265  1.0
  Ni  Ni300  1  0.65364277  0.21226087  0.25972265  1.0
  Ni  Ni301  1  0.65364277  0.54559420  0.25972265  1.0
  Ni  Ni302  1  0.65364277  0.87892753  0.25972265  1.0
  Ni  Ni303  1  0.98697610  0.21226087  0.25972265  1.0
  Ni  Ni304  1  0.98697610  0.54559420  0.25972265  1.0
  Ni  Ni305  1  0.98697610  0.87892753  0.25972265  1.0
  Ni  Ni306  1  0.25396543  0.13485953  0.24313665  1.0
  Ni  Ni307  1  0.25396543  0.46819287  0.24313665  1.0
  Ni  Ni308  1  0.25396543  0.80152620  0.24313665  1.0
  Ni  Ni309  1  0.58729877  0.13485953  0.24313665  1.0
  Ni  Ni310  1  0.58729877  0.46819287  0.24313665  1.0
  Ni  Ni311  1  0.58729877  0.80152620  0.24313665  1.0
  Ni  Ni312  1  0.92063210  0.13485953  0.24313665  1.0
  Ni  Ni313  1  0.92063210  0.46819287  0.24313665  1.0
  Ni  Ni314  1  0.92063210  0.80152620  0.24313665  1.0
  Ni  Ni315  1  0.12063210  0.03485953  0.29313665  1.0
  Ni  Ni316  1  0.12063210  0.36819287  0.29313665  1.0
  Ni  Ni317  1  0.12063210  0.70152620  0.29313665  1.0
  Ni  Ni318  1  0.45396543  0.03485953  0.29313665  1.0
  Ni  Ni319  1  0.45396543  0.36819287  0.29313665  1.0
  Ni  Ni320  1  0.45396543  0.70152620  0.29313665  1.0
  Ni  Ni321  1  0.78729877  0.03485953  0.29313665  1.0
  Ni  Ni322  1  0.78729877  0.36819287  0.29313665  1.0
  Ni  Ni323  1  0.78729877  0.70152620  0.29313665  1.0
  Ni  Ni324  1  0.20006037  0.32847873  0.27083205  1.0
  Ni  Ni325  1  0.20006037  0.66181207  0.27083205  1.0
  Ni  Ni326  1  0.20006037  0.99514540  0.27083205  1.0
  Ni  Ni327  1  0.53339370  0.32847873  0.27083205  1.0
  Ni  Ni328  1  0.53339370  0.66181207  0.27083205  1.0
  Ni  Ni329  1  0.53339370  0.99514540  0.27083205  1.0
  Ni  Ni330  1  0.86672703  0.32847873  0.27083205  1.0
  Ni  Ni331  1  0.86672703  0.66181207  0.27083205  1.0
  Ni  Ni332  1  0.86672703  0.99514540  0.27083205  1.0
  Ni  Ni333  1  0.00006037  0.09514540  0.22083205  1.0
  Ni  Ni334  1  0.00006037  0.42847873  0.22083205  1.0
  Ni  Ni335  1  0.00006037  0.76181207  0.22083205  1.0
  Ni  Ni336  1  0.33339370  0.09514540  0.22083205  1.0
  Ni  Ni337  1  0.33339370  0.42847873  0.22083205  1.0
  Ni  Ni338  1  0.33339370  0.76181207  0.22083205  1.0
  Ni  Ni339  1  0.66672703  0.09514540  0.22083205  1.0
  Ni  Ni340  1  0.66672703  0.42847873  0.22083205  1.0
  Ni  Ni341  1  0.66672703  0.76181207  0.22083205  1.0
  Ni  Ni342  1  0.16018490  0.15370313  0.24027735  1.0
  Ni  Ni343  1  0.16018490  0.48703647  0.24027735  1.0
  Ni  Ni344  1  0.16018490  0.82036980  0.24027735  1.0
  Ni  Ni345  1  0.49351823  0.15370313  0.24027735  1.0
  Ni  Ni346  1  0.49351823  0.48703647  0.24027735  1.0
  Ni  Ni347  1  0.49351823  0.82036980  0.24027735  1.0
  Ni  Ni348  1  0.82685157  0.15370313  0.24027735  1.0
  Ni  Ni349  1  0.82685157  0.48703647  0.24027735  1.0
  Ni  Ni350  1  0.82685157  0.82036980  0.24027735  1.0
  Ni  Ni351  1  0.02685157  0.05370313  0.29027735  1.0
  Ni  Ni352  1  0.02685157  0.38703647  0.29027735  1.0
  Ni  Ni353  1  0.02685157  0.72036980  0.29027735  1.0
  Ni  Ni354  1  0.36018490  0.05370313  0.29027735  1.0
  Ni  Ni355  1  0.36018490  0.38703647  0.29027735  1.0
  Ni  Ni356  1  0.36018490  0.72036980  0.29027735  1.0
  Ni  Ni357  1  0.69351823  0.05370313  0.29027735  1.0
  Ni  Ni358  1  0.69351823  0.38703647  0.29027735  1.0
  Ni  Ni359  1  0.69351823  0.72036980  0.29027735  1.0
  Ni  Ni360  1  0.26018490  0.27036980  0.26527735  1.0
  Ni  Ni361  1  0.26018490  0.60370313  0.26527735  1.0
  Ni  Ni362  1  0.26018490  0.93703647  0.26527735  1.0
  Ni  Ni363  1  0.59351823  0.27036980  0.26527735  1.0
  Ni  Ni364  1  0.59351823  0.60370313  0.26527735  1.0
  Ni  Ni365  1  0.59351823  0.93703647  0.26527735  1.0
  Ni  Ni366  1  0.92685157  0.27036980  0.26527735  1.0
  Ni  Ni367  1  0.92685157  0.60370313  0.26527735  1.0
  Ni  Ni368  1  0.92685157  0.93703647  0.26527735  1.0
  Ni  Ni369  1  0.06018490  0.03703647  0.21527735  1.0
  Ni  Ni370  1  0.06018490  0.37036980  0.21527735  1.0
  Ni  Ni371  1  0.06018490  0.70370313  0.21527735  1.0
  Ni  Ni372  1  0.39351823  0.03703647  0.21527735  1.0
  Ni  Ni373  1  0.39351823  0.37036980  0.21527735  1.0
  Ni  Ni374  1  0.39351823  0.70370313  0.21527735  1.0
  Ni  Ni375  1  0.72685157  0.03703647  0.21527735  1.0
  Ni  Ni376  1  0.72685157  0.37036980  0.21527735  1.0
  Ni  Ni377  1  0.72685157  0.70370313  0.21527735  1.0
  Ni  Ni378  1  0.29351823  0.00370313  0.31527735  1.0
  Ni  Ni379  1  0.29351823  0.33703647  0.31527735  1.0
  Ni  Ni380  1  0.29351823  0.67036980  0.31527735  1.0
  Ni  Ni381  1  0.62685157  0.00370313  0.31527735  1.0
  Ni  Ni382  1  0.62685157  0.33703647  0.31527735  1.0
  Ni  Ni383  1  0.62685157  0.67036980  0.31527735  1.0
  Ni  Ni384  1  0.96018490  0.00370313  0.31527735  1.0
  Ni  Ni385  1  0.96018490  0.33703647  0.31527735  1.0
  Ni  Ni386  1  0.96018490  0.67036980  0.31527735  1.0
  Ni  Ni387  1  0.16018490  0.23703647  0.36527735  1.0
  Ni  Ni388  1  0.16018490  0.57036980  0.36527735  1.0
  Ni  Ni389  1  0.16018490  0.90370313  0.36527735  1.0
  Ni  Ni390  1  0.49351823  0.23703647  0.36527735  1.0
  Ni  Ni391  1  0.49351823  0.57036980  0.36527735  1.0
  Ni  Ni392  1  0.49351823  0.90370313  0.36527735  1.0
  Ni  Ni393  1  0.82685157  0.23703647  0.36527735  1.0
  Ni  Ni394  1  0.82685157  0.57036980  0.36527735  1.0
  Ni  Ni395  1  0.82685157  0.90370313  0.36527735  1.0
  Ni  Ni396  1  0.13307103  0.30588007  0.33741805  1.0
  Ni  Ni397  1  0.13307103  0.63921340  0.33741805  1.0
  Ni  Ni398  1  0.13307103  0.97254673  0.33741805  1.0
  Ni  Ni399  1  0.46640437  0.30588007  0.33741805  1.0
  Ni  Ni400  1  0.46640437  0.63921340  0.33741805  1.0
  Ni  Ni401  1  0.46640437  0.97254673  0.33741805  1.0
  Ni  Ni402  1  0.79973770  0.30588007  0.33741805  1.0
  Ni  Ni403  1  0.79973770  0.63921340  0.33741805  1.0
  Ni  Ni404  1  0.79973770  0.97254673  0.33741805  1.0
  Ni  Ni405  1  0.33307103  0.20588007  0.38741805  1.0
  Ni  Ni406  1  0.33307103  0.53921340  0.38741805  1.0
  Ni  Ni407  1  0.33307103  0.87254673  0.38741805  1.0
  Ni  Ni408  1  0.66640437  0.20588007  0.38741805  1.0
  Ni  Ni409  1  0.66640437  0.53921340  0.38741805  1.0
  Ni  Ni410  1  0.66640437  0.87254673  0.38741805  1.0
  Ni  Ni411  1  0.99973770  0.20588007  0.38741805  1.0
  Ni  Ni412  1  0.99973770  0.53921340  0.38741805  1.0
  Ni  Ni413  1  0.99973770  0.87254673  0.38741805  1.0
  Ni  Ni414  1  0.18697610  0.11226087  0.30972265  1.0
  Ni  Ni415  1  0.18697610  0.44559420  0.30972265  1.0
  Ni  Ni416  1  0.18697610  0.77892753  0.30972265  1.0
  Ni  Ni417  1  0.52030943  0.11226087  0.30972265  1.0
  Ni  Ni418  1  0.52030943  0.44559420  0.30972265  1.0
  Ni  Ni419  1  0.52030943  0.77892753  0.30972265  1.0
  Ni  Ni420  1  0.85364277  0.11226087  0.30972265  1.0
  Ni  Ni421  1  0.85364277  0.44559420  0.30972265  1.0
  Ni  Ni422  1  0.85364277  0.77892753  0.30972265  1.0
  Ni  Ni423  1  0.05364277  0.01226087  0.35972265  1.0
  Ni  Ni424  1  0.05364277  0.34559420  0.35972265  1.0
  Ni  Ni425  1  0.05364277  0.67892753  0.35972265  1.0
  Ni  Ni426  1  0.38697610  0.01226087  0.35972265  1.0
  Ni  Ni427  1  0.38697610  0.34559420  0.35972265  1.0
  Ni  Ni428  1  0.38697610  0.67892753  0.35972265  1.0
  Ni  Ni429  1  0.72030943  0.01226087  0.35972265  1.0
  Ni  Ni430  1  0.72030943  0.34559420  0.35972265  1.0
  Ni  Ni431  1  0.72030943  0.67892753  0.35972265  1.0
  Ni  Ni432  1  0.32063210  0.26819287  0.34313665  1.0
  Ni  Ni433  1  0.32063210  0.60152620  0.34313665  1.0
  Ni  Ni434  1  0.32063210  0.93485953  0.34313665  1.0
  Ni  Ni435  1  0.65396543  0.26819287  0.34313665  1.0
  Ni  Ni436  1  0.65396543  0.60152620  0.34313665  1.0
  Ni  Ni437  1  0.65396543  0.93485953  0.34313665  1.0
  Ni  Ni438  1  0.98729877  0.26819287  0.34313665  1.0
  Ni  Ni439  1  0.98729877  0.60152620  0.34313665  1.0
  Ni  Ni440  1  0.98729877  0.93485953  0.34313665  1.0
  Ni  Ni441  1  0.18729877  0.16819287  0.39313665  1.0
  Ni  Ni442  1  0.18729877  0.50152620  0.39313665  1.0
  Ni  Ni443  1  0.18729877  0.83485953  0.39313665  1.0
  Ni  Ni444  1  0.52063210  0.16819287  0.39313665  1.0
  Ni  Ni445  1  0.52063210  0.50152620  0.39313665  1.0
  Ni  Ni446  1  0.52063210  0.83485953  0.39313665  1.0
  Ni  Ni447  1  0.85396543  0.16819287  0.39313665  1.0
  Ni  Ni448  1  0.85396543  0.50152620  0.39313665  1.0
  Ni  Ni449  1  0.85396543  0.83485953  0.39313665  1.0
  Ni  Ni450  1  0.26672703  0.12847873  0.37083205  1.0
  Ni  Ni451  1  0.26672703  0.46181207  0.37083205  1.0
  Ni  Ni452  1  0.26672703  0.79514540  0.37083205  1.0
  Ni  Ni453  1  0.60006037  0.12847873  0.37083205  1.0
  Ni  Ni454  1  0.60006037  0.46181207  0.37083205  1.0
  Ni  Ni455  1  0.60006037  0.79514540  0.37083205  1.0
  Ni  Ni456  1  0.93339370  0.12847873  0.37083205  1.0
  Ni  Ni457  1  0.93339370  0.46181207  0.37083205  1.0
  Ni  Ni458  1  0.93339370  0.79514540  0.37083205  1.0
  Ni  Ni459  1  0.06672703  0.22847873  0.32083205  1.0
  Ni  Ni460  1  0.06672703  0.56181207  0.32083205  1.0
  Ni  Ni461  1  0.06672703  0.89514540  0.32083205  1.0
  Ni  Ni462  1  0.40006037  0.22847873  0.32083205  1.0
  Ni  Ni463  1  0.40006037  0.56181207  0.32083205  1.0
  Ni  Ni464  1  0.40006037  0.89514540  0.32083205  1.0
  Ni  Ni465  1  0.73339370  0.22847873  0.32083205  1.0
  Ni  Ni466  1  0.73339370  0.56181207  0.32083205  1.0
  Ni  Ni467  1  0.73339370  0.89514540  0.32083205  1.0
  Ni  Ni468  1  0.22685157  0.28703647  0.34027735  1.0
  Ni  Ni469  1  0.22685157  0.62036980  0.34027735  1.0
  Ni  Ni470  1  0.22685157  0.95370313  0.34027735  1.0
  Ni  Ni471  1  0.56018490  0.28703647  0.34027735  1.0
  Ni  Ni472  1  0.56018490  0.62036980  0.34027735  1.0
  Ni  Ni473  1  0.56018490  0.95370313  0.34027735  1.0
  Ni  Ni474  1  0.89351823  0.28703647  0.34027735  1.0
  Ni  Ni475  1  0.89351823  0.62036980  0.34027735  1.0
  Ni  Ni476  1  0.89351823  0.95370313  0.34027735  1.0
  Ni  Ni477  1  0.09351823  0.18703647  0.39027735  1.0
  Ni  Ni478  1  0.09351823  0.52036980  0.39027735  1.0
  Ni  Ni479  1  0.09351823  0.85370313  0.39027735  1.0
  Ni  Ni480  1  0.42685157  0.18703647  0.39027735  1.0
  Ni  Ni481  1  0.42685157  0.52036980  0.39027735  1.0
  Ni  Ni482  1  0.42685157  0.85370313  0.39027735  1.0
  Ni  Ni483  1  0.76018490  0.18703647  0.39027735  1.0
  Ni  Ni484  1  0.76018490  0.52036980  0.39027735  1.0
  Ni  Ni485  1  0.76018490  0.85370313  0.39027735  1.0
  Ni  Ni486  1  0.32685157  0.07036980  0.36527735  1.0
  Ni  Ni487  1  0.32685157  0.40370313  0.36527735  1.0
  Ni  Ni488  1  0.32685157  0.73703647  0.36527735  1.0
  Ni  Ni489  1  0.66018490  0.07036980  0.36527735  1.0
  Ni  Ni490  1  0.66018490  0.40370313  0.36527735  1.0
  Ni  Ni491  1  0.66018490  0.73703647  0.36527735  1.0
  Ni  Ni492  1  0.99351823  0.07036980  0.36527735  1.0
  Ni  Ni493  1  0.99351823  0.40370313  0.36527735  1.0
  Ni  Ni494  1  0.99351823  0.73703647  0.36527735  1.0
  Ni  Ni495  1  0.12685157  0.17036980  0.31527735  1.0
  Ni  Ni496  1  0.12685157  0.50370313  0.31527735  1.0
  Ni  Ni497  1  0.12685157  0.83703647  0.31527735  1.0
  Ni  Ni498  1  0.46018490  0.17036980  0.31527735  1.0
  Ni  Ni499  1  0.46018490  0.50370313  0.31527735  1.0
  Ni  Ni500  1  0.46018490  0.83703647  0.31527735  1.0
  Ni  Ni501  1  0.79351823  0.17036980  0.31527735  1.0
  Ni  Ni502  1  0.79351823  0.50370313  0.31527735  1.0
  Ni  Ni503  1  0.79351823  0.83703647  0.31527735  1.0
  Zr  Zr504  1  0.01298277  0.31063753  0.06062865  1.0
  Zr  Zr505  1  0.01298277  0.64397087  0.06062865  1.0
  Zr  Zr506  1  0.01298277  0.97730420  0.06062865  1.0
  Zr  Zr507  1  0.34631610  0.31063753  0.06062865  1.0
  Zr  Zr508  1  0.34631610  0.64397087  0.06062865  1.0
  Zr  Zr509  1  0.34631610  0.97730420  0.06062865  1.0
  Zr  Zr510  1  0.67964943  0.31063753  0.06062865  1.0
  Zr  Zr511  1  0.67964943  0.64397087  0.06062865  1.0
  Zr  Zr512  1  0.67964943  0.97730420  0.06062865  1.0
  Zr  Zr513  1  0.14631610  0.07730420  0.01062865  1.0
  Zr  Zr514  1  0.14631610  0.41063753  0.01062865  1.0
  Zr  Zr515  1  0.14631610  0.74397087  0.01062865  1.0
  Zr  Zr516  1  0.47964943  0.07730420  0.01062865  1.0
  Zr  Zr517  1  0.47964943  0.41063753  0.01062865  1.0
  Zr  Zr518  1  0.47964943  0.74397087  0.01062865  1.0
  Zr  Zr519  1  0.81298277  0.07730420  0.01062865  1.0
  Zr  Zr520  1  0.81298277  0.41063753  0.01062865  1.0
  Zr  Zr521  1  0.81298277  0.74397087  0.01062865  1.0
  Zr  Zr522  1  0.04072037  0.13010207  0.01992605  1.0
  Zr  Zr523  1  0.04072037  0.46343540  0.01992605  1.0
  Zr  Zr524  1  0.04072037  0.79676873  0.01992605  1.0
  Zr  Zr525  1  0.37405370  0.13010207  0.01992605  1.0
  Zr  Zr526  1  0.37405370  0.46343540  0.01992605  1.0
  Zr  Zr527  1  0.37405370  0.79676873  0.01992605  1.0
  Zr  Zr528  1  0.70738703  0.13010207  0.01992605  1.0
  Zr  Zr529  1  0.70738703  0.46343540  0.01992605  1.0
  Zr  Zr530  1  0.70738703  0.79676873  0.01992605  1.0
  Zr  Zr531  1  0.24072037  0.03010207  0.06992605  1.0
  Zr  Zr532  1  0.24072037  0.36343540  0.06992605  1.0
  Zr  Zr533  1  0.24072037  0.69676873  0.06992605  1.0
  Zr  Zr534  1  0.57405370  0.03010207  0.06992605  1.0
  Zr  Zr535  1  0.57405370  0.36343540  0.06992605  1.0
  Zr  Zr536  1  0.57405370  0.69676873  0.06992605  1.0
  Zr  Zr537  1  0.90738703  0.03010207  0.06992605  1.0
  Zr  Zr538  1  0.90738703  0.36343540  0.06992605  1.0
  Zr  Zr539  1  0.90738703  0.69676873  0.06992605  1.0
  Zr  Zr540  1  0.07964943  0.11063753  0.16062865  1.0
  Zr  Zr541  1  0.07964943  0.44397087  0.16062865  1.0
  Zr  Zr542  1  0.07964943  0.77730420  0.16062865  1.0
  Zr  Zr543  1  0.41298277  0.11063753  0.16062865  1.0
  Zr  Zr544  1  0.41298277  0.44397087  0.16062865  1.0
  Zr  Zr545  1  0.41298277  0.77730420  0.16062865  1.0
  Zr  Zr546  1  0.74631610  0.11063753  0.16062865  1.0
  Zr  Zr547  1  0.74631610  0.44397087  0.16062865  1.0
  Zr  Zr548  1  0.74631610  0.77730420  0.16062865  1.0
  Zr  Zr549  1  0.21298277  0.21063753  0.11062865  1.0
  Zr  Zr550  1  0.21298277  0.54397087  0.11062865  1.0
  Zr  Zr551  1  0.21298277  0.87730420  0.11062865  1.0
  Zr  Zr552  1  0.54631610  0.21063753  0.11062865  1.0
  Zr  Zr553  1  0.54631610  0.54397087  0.11062865  1.0
  Zr  Zr554  1  0.54631610  0.87730420  0.11062865  1.0
  Zr  Zr555  1  0.87964943  0.21063753  0.11062865  1.0
  Zr  Zr556  1  0.87964943  0.54397087  0.11062865  1.0
  Zr  Zr557  1  0.87964943  0.87730420  0.11062865  1.0
  Zr  Zr558  1  0.10738703  0.26343540  0.11992605  1.0
  Zr  Zr559  1  0.10738703  0.59676873  0.11992605  1.0
  Zr  Zr560  1  0.10738703  0.93010207  0.11992605  1.0
  Zr  Zr561  1  0.44072037  0.26343540  0.11992605  1.0
  Zr  Zr562  1  0.44072037  0.59676873  0.11992605  1.0
  Zr  Zr563  1  0.44072037  0.93010207  0.11992605  1.0
  Zr  Zr564  1  0.77405370  0.26343540  0.11992605  1.0
  Zr  Zr565  1  0.77405370  0.59676873  0.11992605  1.0
  Zr  Zr566  1  0.77405370  0.93010207  0.11992605  1.0
  Zr  Zr567  1  0.30738703  0.16343540  0.16992605  1.0
  Zr  Zr568  1  0.30738703  0.49676873  0.16992605  1.0
  Zr  Zr569  1  0.30738703  0.83010207  0.16992605  1.0
  Zr  Zr570  1  0.64072037  0.16343540  0.16992605  1.0
  Zr  Zr571  1  0.64072037  0.49676873  0.16992605  1.0
  Zr  Zr572  1  0.64072037  0.83010207  0.16992605  1.0
  Zr  Zr573  1  0.97405370  0.16343540  0.16992605  1.0
  Zr  Zr574  1  0.97405370  0.49676873  0.16992605  1.0
  Zr  Zr575  1  0.97405370  0.83010207  0.16992605  1.0
  Zr  Zr576  1  0.14631610  0.24397087  0.26062865  1.0
  Zr  Zr577  1  0.14631610  0.57730420  0.26062865  1.0
  Zr  Zr578  1  0.14631610  0.91063753  0.26062865  1.0
  Zr  Zr579  1  0.47964943  0.24397087  0.26062865  1.0
  Zr  Zr580  1  0.47964943  0.57730420  0.26062865  1.0
  Zr  Zr581  1  0.47964943  0.91063753  0.26062865  1.0
  Zr  Zr582  1  0.81298277  0.24397087  0.26062865  1.0
  Zr  Zr583  1  0.81298277  0.57730420  0.26062865  1.0
  Zr  Zr584  1  0.81298277  0.91063753  0.26062865  1.0
  Zr  Zr585  1  0.27964943  0.01063753  0.21062865  1.0
  Zr  Zr586  1  0.27964943  0.34397087  0.21062865  1.0
  Zr  Zr587  1  0.27964943  0.67730420  0.21062865  1.0
  Zr  Zr588  1  0.61298277  0.01063753  0.21062865  1.0
  Zr  Zr589  1  0.61298277  0.34397087  0.21062865  1.0
  Zr  Zr590  1  0.61298277  0.67730420  0.21062865  1.0
  Zr  Zr591  1  0.94631610  0.01063753  0.21062865  1.0
  Zr  Zr592  1  0.94631610  0.34397087  0.21062865  1.0
  Zr  Zr593  1  0.94631610  0.67730420  0.21062865  1.0
  Zr  Zr594  1  0.17405370  0.06343540  0.21992605  1.0
  Zr  Zr595  1  0.17405370  0.39676873  0.21992605  1.0
  Zr  Zr596  1  0.17405370  0.73010207  0.21992605  1.0
  Zr  Zr597  1  0.50738703  0.06343540  0.21992605  1.0
  Zr  Zr598  1  0.50738703  0.39676873  0.21992605  1.0
  Zr  Zr599  1  0.50738703  0.73010207  0.21992605  1.0
  Zr  Zr600  1  0.84072037  0.06343540  0.21992605  1.0
  Zr  Zr601  1  0.84072037  0.39676873  0.21992605  1.0
  Zr  Zr602  1  0.84072037  0.73010207  0.21992605  1.0
  Zr  Zr603  1  0.04072037  0.29676873  0.26992605  1.0
  Zr  Zr604  1  0.04072037  0.63010207  0.26992605  1.0
  Zr  Zr605  1  0.04072037  0.96343540  0.26992605  1.0
  Zr  Zr606  1  0.37405370  0.29676873  0.26992605  1.0
  Zr  Zr607  1  0.37405370  0.63010207  0.26992605  1.0
  Zr  Zr608  1  0.37405370  0.96343540  0.26992605  1.0
  Zr  Zr609  1  0.70738703  0.29676873  0.26992605  1.0
  Zr  Zr610  1  0.70738703  0.63010207  0.26992605  1.0
  Zr  Zr611  1  0.70738703  0.96343540  0.26992605  1.0
  Zr  Zr612  1  0.21298277  0.04397087  0.36062865  1.0
  Zr  Zr613  1  0.21298277  0.37730420  0.36062865  1.0
  Zr  Zr614  1  0.21298277  0.71063753  0.36062865  1.0
  Zr  Zr615  1  0.54631610  0.04397087  0.36062865  1.0
  Zr  Zr616  1  0.54631610  0.37730420  0.36062865  1.0
  Zr  Zr617  1  0.54631610  0.71063753  0.36062865  1.0
  Zr  Zr618  1  0.87964943  0.04397087  0.36062865  1.0
  Zr  Zr619  1  0.87964943  0.37730420  0.36062865  1.0
  Zr  Zr620  1  0.87964943  0.71063753  0.36062865  1.0
  Zr  Zr621  1  0.01298277  0.14397087  0.31062865  1.0
  Zr  Zr622  1  0.01298277  0.47730420  0.31062865  1.0
  Zr  Zr623  1  0.01298277  0.81063753  0.31062865  1.0
  Zr  Zr624  1  0.34631610  0.14397087  0.31062865  1.0
  Zr  Zr625  1  0.34631610  0.47730420  0.31062865  1.0
  Zr  Zr626  1  0.34631610  0.81063753  0.31062865  1.0
  Zr  Zr627  1  0.67964943  0.14397087  0.31062865  1.0
  Zr  Zr628  1  0.67964943  0.47730420  0.31062865  1.0
  Zr  Zr629  1  0.67964943  0.81063753  0.31062865  1.0
  Zr  Zr630  1  0.24072037  0.19676873  0.31992605  1.0
  Zr  Zr631  1  0.24072037  0.53010207  0.31992605  1.0
  Zr  Zr632  1  0.24072037  0.86343540  0.31992605  1.0
  Zr  Zr633  1  0.57405370  0.19676873  0.31992605  1.0
  Zr  Zr634  1  0.57405370  0.53010207  0.31992605  1.0
  Zr  Zr635  1  0.57405370  0.86343540  0.31992605  1.0
  Zr  Zr636  1  0.90738703  0.19676873  0.31992605  1.0
  Zr  Zr637  1  0.90738703  0.53010207  0.31992605  1.0
  Zr  Zr638  1  0.90738703  0.86343540  0.31992605  1.0
  Zr  Zr639  1  0.10738703  0.09676873  0.36992605  1.0
  Zr  Zr640  1  0.10738703  0.43010207  0.36992605  1.0
  Zr  Zr641  1  0.10738703  0.76343540  0.36992605  1.0
  Zr  Zr642  1  0.44072037  0.09676873  0.36992605  1.0
  Zr  Zr643  1  0.44072037  0.43010207  0.36992605  1.0
  Zr  Zr644  1  0.44072037  0.76343540  0.36992605  1.0
  Zr  Zr645  1  0.77405370  0.09676873  0.36992605  1.0
  Zr  Zr646  1  0.77405370  0.43010207  0.36992605  1.0
  Zr  Zr647  1  0.77405370  0.76343540  0.36992605  1.0
