# generated using pymatgen
data_Zr2Ni7
_symmetry_space_group_name_H-M   'P 1'
_cell_length_a   14.03028001
_cell_length_b   39.64668261
_cell_length_c   33.03003921
_cell_angle_alpha   97.86948768
_cell_angle_beta   60.29272913
_cell_angle_gamma   74.49900130
_symmetry_Int_Tables_number   1
_chemical_formula_structural   Zr2Ni7
_chemical_formula_sum   'Zr108 Ni378'
_cell_volume   14559.70406845
_cell_formula_units_Z   54
loop_
 _symmetry_equiv_pos_site_id
 _symmetry_equiv_pos_as_xyz
  1  'x, y, z'
loop_
 _atom_site_type_symbol
 _atom_site_label
 _atom_site_symmetry_multiplicity
 _atom_site_fract_x
 _atom_site_fract_y
 _atom_site_fract_z
 _atom_site_occupancy
  Zr  Zr0  1  0.05119800  0.03785233  0.01622243  1.0
  Zr  Zr1  1  0.05119800  0.37118567  0.01622243  1.0
  Zr  Zr2  1  0.05119800  0.70451900  0.01622243  1.0
  Zr  Zr3  1  0.38453133  0.03785233  0.01622243  1.0
  Zr  Zr4  1  0.38453133  0.37118567  0.01622243  1.0
  Zr  Zr5  1  0.38453133  0.70451900  0.01622243  1.0
  Zr  Zr6  1  0.71786467  0.03785233  0.01622243  1.0
  Zr  Zr7  1  0.71786467  0.37118567  0.01622243  1.0
  Zr  Zr8  1  0.71786467  0.70451900  0.01622243  1.0
  Zr  Zr9  1  0.27464933  0.12842467  0.05503914  1.0
  Zr  Zr10  1  0.27464933  0.46175800  0.05503914  1.0
  Zr  Zr11  1  0.27464933  0.79509133  0.05503914  1.0
  Zr  Zr12  1  0.60798267  0.12842467  0.05503914  1.0
  Zr  Zr13  1  0.60798267  0.46175800  0.05503914  1.0
  Zr  Zr14  1  0.60798267  0.79509133  0.05503914  1.0
  Zr  Zr15  1  0.94131600  0.12842467  0.05503914  1.0
  Zr  Zr16  1  0.94131600  0.46175800  0.05503914  1.0
  Zr  Zr17  1  0.94131600  0.79509133  0.05503914  1.0
  Zr  Zr18  1  0.05868400  0.20490867  0.08781800  1.0
  Zr  Zr19  1  0.05868400  0.53824200  0.08781800  1.0
  Zr  Zr20  1  0.05868400  0.87157533  0.08781800  1.0
  Zr  Zr21  1  0.39201733  0.20490867  0.08781800  1.0
  Zr  Zr22  1  0.39201733  0.53824200  0.08781800  1.0
  Zr  Zr23  1  0.39201733  0.87157533  0.08781800  1.0
  Zr  Zr24  1  0.72535067  0.20490867  0.08781800  1.0
  Zr  Zr25  1  0.72535067  0.53824200  0.08781800  1.0
  Zr  Zr26  1  0.72535067  0.87157533  0.08781800  1.0
  Zr  Zr27  1  0.28213533  0.29548100  0.12663471  1.0
  Zr  Zr28  1  0.28213533  0.62881433  0.12663471  1.0
  Zr  Zr29  1  0.28213533  0.96214767  0.12663471  1.0
  Zr  Zr30  1  0.61546867  0.29548100  0.12663471  1.0
  Zr  Zr31  1  0.61546867  0.62881433  0.12663471  1.0
  Zr  Zr32  1  0.61546867  0.96214767  0.12663471  1.0
  Zr  Zr33  1  0.94880200  0.29548100  0.12663471  1.0
  Zr  Zr34  1  0.94880200  0.62881433  0.12663471  1.0
  Zr  Zr35  1  0.94880200  0.96214767  0.12663471  1.0
  Ni  Ni36  1  0.28988000  0.02601700  0.10695043  1.0
  Ni  Ni37  1  0.28988000  0.35935033  0.10695043  1.0
  Ni  Ni38  1  0.28988000  0.69268367  0.10695043  1.0
  Ni  Ni39  1  0.62321333  0.02601700  0.10695043  1.0
  Ni  Ni40  1  0.62321333  0.35935033  0.10695043  1.0
  Ni  Ni41  1  0.62321333  0.69268367  0.10695043  1.0
  Ni  Ni42  1  0.95654667  0.02601700  0.10695043  1.0
  Ni  Ni43  1  0.95654667  0.35935033  0.10695043  1.0
  Ni  Ni44  1  0.95654667  0.69268367  0.10695043  1.0
  Ni  Ni45  1  0.18008067  0.02601700  0.05820700  1.0
  Ni  Ni46  1  0.18008067  0.35935033  0.05820700  1.0
  Ni  Ni47  1  0.18008067  0.69268367  0.05820700  1.0
  Ni  Ni48  1  0.51341400  0.02601700  0.05820700  1.0
  Ni  Ni49  1  0.51341400  0.35935033  0.05820700  1.0
  Ni  Ni50  1  0.51341400  0.69268367  0.05820700  1.0
  Ni  Ni51  1  0.84674733  0.02601700  0.05820700  1.0
  Ni  Ni52  1  0.84674733  0.35935033  0.05820700  1.0
  Ni  Ni53  1  0.84674733  0.69268367  0.05820700  1.0
  Ni  Ni54  1  0.32834200  0.08326533  0.10649171  1.0
  Ni  Ni55  1  0.32834200  0.41659867  0.10649171  1.0
  Ni  Ni56  1  0.32834200  0.74993200  0.10649171  1.0
  Ni  Ni57  1  0.66167533  0.08326533  0.10649171  1.0
  Ni  Ni58  1  0.66167533  0.41659867  0.10649171  1.0
  Ni  Ni59  1  0.66167533  0.74993200  0.10649171  1.0
  Ni  Ni60  1  0.99500867  0.08326533  0.10649171  1.0
  Ni  Ni61  1  0.99500867  0.41659867  0.10649171  1.0
  Ni  Ni62  1  0.99500867  0.74993200  0.10649171  1.0
  Ni  Ni63  1  0.16022400  0.08326533  0.10773571  1.0
  Ni  Ni64  1  0.16022400  0.41659867  0.10773571  1.0
  Ni  Ni65  1  0.16022400  0.74993200  0.10773571  1.0
  Ni  Ni66  1  0.49355733  0.08326533  0.10773571  1.0
  Ni  Ni67  1  0.49355733  0.41659867  0.10773571  1.0
  Ni  Ni68  1  0.49355733  0.74993200  0.10773571  1.0
  Ni  Ni69  1  0.82689067  0.08326533  0.10773571  1.0
  Ni  Ni70  1  0.82689067  0.41659867  0.10773571  1.0
  Ni  Ni71  1  0.82689067  0.74993200  0.10773571  1.0
  Ni  Ni72  1  0.16285700  0.08346833  0.03577214  1.0
  Ni  Ni73  1  0.16285700  0.41680167  0.03577214  1.0
  Ni  Ni74  1  0.16285700  0.75013500  0.03577214  1.0
  Ni  Ni75  1  0.49619033  0.08346833  0.03577214  1.0
  Ni  Ni76  1  0.49619033  0.41680167  0.03577214  1.0
  Ni  Ni77  1  0.49619033  0.75013500  0.03577214  1.0
  Ni  Ni78  1  0.82952367  0.08346833  0.03577214  1.0
  Ni  Ni79  1  0.82952367  0.41680167  0.03577214  1.0
  Ni  Ni80  1  0.82952367  0.75013500  0.03577214  1.0
  Ni  Ni81  1  0.03539067  0.14065533  0.10785843  1.0
  Ni  Ni82  1  0.03539067  0.47398867  0.10785843  1.0
  Ni  Ni83  1  0.03539067  0.80732200  0.10785843  1.0
  Ni  Ni84  1  0.36872400  0.14065533  0.10785843  1.0
  Ni  Ni85  1  0.36872400  0.47398867  0.10785843  1.0
  Ni  Ni86  1  0.36872400  0.80732200  0.10785843  1.0
  Ni  Ni87  1  0.70205733  0.14065533  0.10785843  1.0
  Ni  Ni88  1  0.70205733  0.47398867  0.10785843  1.0
  Ni  Ni89  1  0.70205733  0.80732200  0.10785843  1.0
  Ni  Ni90  1  0.14640500  0.14065533  0.01270329  1.0
  Ni  Ni91  1  0.14640500  0.47398867  0.01270329  1.0
  Ni  Ni92  1  0.14640500  0.80732200  0.01270329  1.0
  Ni  Ni93  1  0.47973833  0.14065533  0.01270329  1.0
  Ni  Ni94  1  0.47973833  0.47398867  0.01270329  1.0
  Ni  Ni95  1  0.47973833  0.80732200  0.01270329  1.0
  Ni  Ni96  1  0.81307167  0.14065533  0.01270329  1.0
  Ni  Ni97  1  0.81307167  0.47398867  0.01270329  1.0
  Ni  Ni98  1  0.81307167  0.80732200  0.01270329  1.0
  Ni  Ni99  1  0.29794267  0.19267800  0.03499871  1.0
  Ni  Ni100  1  0.29794267  0.52601133  0.03499871  1.0
  Ni  Ni101  1  0.29794267  0.85934467  0.03499871  1.0
  Ni  Ni102  1  0.63127600  0.19267800  0.03499871  1.0
  Ni  Ni103  1  0.63127600  0.52601133  0.03499871  1.0
  Ni  Ni104  1  0.63127600  0.85934467  0.03499871  1.0
  Ni  Ni105  1  0.96460933  0.19267800  0.03499871  1.0
  Ni  Ni106  1  0.96460933  0.52601133  0.03499871  1.0
  Ni  Ni107  1  0.96460933  0.85934467  0.03499871  1.0
  Ni  Ni108  1  0.18692833  0.19267800  0.13015386  1.0
  Ni  Ni109  1  0.18692833  0.52601133  0.13015386  1.0
  Ni  Ni110  1  0.18692833  0.85934467  0.13015386  1.0
  Ni  Ni111  1  0.52026167  0.19267800  0.13015386  1.0
  Ni  Ni112  1  0.52026167  0.52601133  0.13015386  1.0
  Ni  Ni113  1  0.52026167  0.85934467  0.13015386  1.0
  Ni  Ni114  1  0.85359500  0.19267800  0.13015386  1.0
  Ni  Ni115  1  0.85359500  0.52601133  0.13015386  1.0
  Ni  Ni116  1  0.85359500  0.85934467  0.13015386  1.0
  Ni  Ni117  1  0.17047633  0.24986500  0.10708500  1.0
  Ni  Ni118  1  0.17047633  0.58319833  0.10708500  1.0
  Ni  Ni119  1  0.17047633  0.91653167  0.10708500  1.0
  Ni  Ni120  1  0.50380967  0.24986500  0.10708500  1.0
  Ni  Ni121  1  0.50380967  0.58319833  0.10708500  1.0
  Ni  Ni122  1  0.50380967  0.91653167  0.10708500  1.0
  Ni  Ni123  1  0.83714300  0.24986500  0.10708500  1.0
  Ni  Ni124  1  0.83714300  0.58319833  0.10708500  1.0
  Ni  Ni125  1  0.83714300  0.91653167  0.10708500  1.0
  Ni  Ni126  1  0.00499133  0.25006800  0.03636543  1.0
  Ni  Ni127  1  0.00499133  0.58340133  0.03636543  1.0
  Ni  Ni128  1  0.00499133  0.91673467  0.03636543  1.0
  Ni  Ni129  1  0.33832467  0.25006800  0.03636543  1.0
  Ni  Ni130  1  0.33832467  0.58340133  0.03636543  1.0
  Ni  Ni131  1  0.33832467  0.91673467  0.03636543  1.0
  Ni  Ni132  1  0.67165800  0.25006800  0.03636543  1.0
  Ni  Ni133  1  0.67165800  0.58340133  0.03636543  1.0
  Ni  Ni134  1  0.67165800  0.91673467  0.03636543  1.0
  Ni  Ni135  1  0.17310933  0.25006800  0.03512143  1.0
  Ni  Ni136  1  0.17310933  0.58340133  0.03512143  1.0
  Ni  Ni137  1  0.17310933  0.91673467  0.03512143  1.0
  Ni  Ni138  1  0.50644267  0.25006800  0.03512143  1.0
  Ni  Ni139  1  0.50644267  0.58340133  0.03512143  1.0
  Ni  Ni140  1  0.50644267  0.91673467  0.03512143  1.0
  Ni  Ni141  1  0.83977600  0.25006800  0.03512143  1.0
  Ni  Ni142  1  0.83977600  0.58340133  0.03512143  1.0
  Ni  Ni143  1  0.83977600  0.91673467  0.03512143  1.0
  Ni  Ni144  1  0.04345333  0.30731633  0.03590671  1.0
  Ni  Ni145  1  0.04345333  0.64064967  0.03590671  1.0
  Ni  Ni146  1  0.04345333  0.97398300  0.03590671  1.0
  Ni  Ni147  1  0.37678667  0.30731633  0.03590671  1.0
  Ni  Ni148  1  0.37678667  0.64064967  0.03590671  1.0
  Ni  Ni149  1  0.37678667  0.97398300  0.03590671  1.0
  Ni  Ni150  1  0.71012000  0.30731633  0.03590671  1.0
  Ni  Ni151  1  0.71012000  0.64064967  0.03590671  1.0
  Ni  Ni152  1  0.71012000  0.97398300  0.03590671  1.0
  Ni  Ni153  1  0.15325267  0.30731633  0.08465014  1.0
  Ni  Ni154  1  0.15325267  0.64064967  0.08465014  1.0
  Ni  Ni155  1  0.15325267  0.97398300  0.08465014  1.0
  Ni  Ni156  1  0.48658600  0.30731633  0.08465014  1.0
  Ni  Ni157  1  0.48658600  0.64064967  0.08465014  1.0
  Ni  Ni158  1  0.48658600  0.97398300  0.08465014  1.0
  Ni  Ni159  1  0.81991933  0.30731633  0.08465014  1.0
  Ni  Ni160  1  0.81991933  0.64064967  0.08465014  1.0
  Ni  Ni161  1  0.81991933  0.97398300  0.08465014  1.0
  Zr  Zr162  1  0.05119800  0.03785233  0.15907957  1.0
  Zr  Zr163  1  0.05119800  0.37118567  0.15907957  1.0
  Zr  Zr164  1  0.05119800  0.70451900  0.15907957  1.0
  Zr  Zr165  1  0.38453133  0.03785233  0.15907957  1.0
  Zr  Zr166  1  0.38453133  0.37118567  0.15907957  1.0
  Zr  Zr167  1  0.38453133  0.70451900  0.15907957  1.0
  Zr  Zr168  1  0.71786467  0.03785233  0.15907957  1.0
  Zr  Zr169  1  0.71786467  0.37118567  0.15907957  1.0
  Zr  Zr170  1  0.71786467  0.70451900  0.15907957  1.0
  Zr  Zr171  1  0.27464933  0.12842467  0.19789629  1.0
  Zr  Zr172  1  0.27464933  0.46175800  0.19789629  1.0
  Zr  Zr173  1  0.27464933  0.79509133  0.19789629  1.0
  Zr  Zr174  1  0.60798267  0.12842467  0.19789629  1.0
  Zr  Zr175  1  0.60798267  0.46175800  0.19789629  1.0
  Zr  Zr176  1  0.60798267  0.79509133  0.19789629  1.0
  Zr  Zr177  1  0.94131600  0.12842467  0.19789629  1.0
  Zr  Zr178  1  0.94131600  0.46175800  0.19789629  1.0
  Zr  Zr179  1  0.94131600  0.79509133  0.19789629  1.0
  Zr  Zr180  1  0.05868400  0.20490867  0.23067514  1.0
  Zr  Zr181  1  0.05868400  0.53824200  0.23067514  1.0
  Zr  Zr182  1  0.05868400  0.87157533  0.23067514  1.0
  Zr  Zr183  1  0.39201733  0.20490867  0.23067514  1.0
  Zr  Zr184  1  0.39201733  0.53824200  0.23067514  1.0
  Zr  Zr185  1  0.39201733  0.87157533  0.23067514  1.0
  Zr  Zr186  1  0.72535067  0.20490867  0.23067514  1.0
  Zr  Zr187  1  0.72535067  0.53824200  0.23067514  1.0
  Zr  Zr188  1  0.72535067  0.87157533  0.23067514  1.0
  Zr  Zr189  1  0.28213533  0.29548100  0.26949186  1.0
  Zr  Zr190  1  0.28213533  0.62881433  0.26949186  1.0
  Zr  Zr191  1  0.28213533  0.96214767  0.26949186  1.0
  Zr  Zr192  1  0.61546867  0.29548100  0.26949186  1.0
  Zr  Zr193  1  0.61546867  0.62881433  0.26949186  1.0
  Zr  Zr194  1  0.61546867  0.96214767  0.26949186  1.0
  Zr  Zr195  1  0.94880200  0.29548100  0.26949186  1.0
  Zr  Zr196  1  0.94880200  0.62881433  0.26949186  1.0
  Zr  Zr197  1  0.94880200  0.96214767  0.26949186  1.0
  Ni  Ni198  1  0.28988000  0.02601700  0.24980757  1.0
  Ni  Ni199  1  0.28988000  0.35935033  0.24980757  1.0
  Ni  Ni200  1  0.28988000  0.69268367  0.24980757  1.0
  Ni  Ni201  1  0.62321333  0.02601700  0.24980757  1.0
  Ni  Ni202  1  0.62321333  0.35935033  0.24980757  1.0
  Ni  Ni203  1  0.62321333  0.69268367  0.24980757  1.0
  Ni  Ni204  1  0.95654667  0.02601700  0.24980757  1.0
  Ni  Ni205  1  0.95654667  0.35935033  0.24980757  1.0
  Ni  Ni206  1  0.95654667  0.69268367  0.24980757  1.0
  Ni  Ni207  1  0.18008067  0.02601700  0.20106414  1.0
  Ni  Ni208  1  0.18008067  0.35935033  0.20106414  1.0
  Ni  Ni209  1  0.18008067  0.69268367  0.20106414  1.0
  Ni  Ni210  1  0.51341400  0.02601700  0.20106414  1.0
  Ni  Ni211  1  0.51341400  0.35935033  0.20106414  1.0
  Ni  Ni212  1  0.51341400  0.69268367  0.20106414  1.0
  Ni  Ni213  1  0.84674733  0.02601700  0.20106414  1.0
  Ni  Ni214  1  0.84674733  0.35935033  0.20106414  1.0
  Ni  Ni215  1  0.84674733  0.69268367  0.20106414  1.0
  Ni  Ni216  1  0.32834200  0.08326533  0.24934886  1.0
  Ni  Ni217  1  0.32834200  0.41659867  0.24934886  1.0
  Ni  Ni218  1  0.32834200  0.74993200  0.24934886  1.0
  Ni  Ni219  1  0.66167533  0.08326533  0.24934886  1.0
  Ni  Ni220  1  0.66167533  0.41659867  0.24934886  1.0
  Ni  Ni221  1  0.66167533  0.74993200  0.24934886  1.0
  Ni  Ni222  1  0.99500867  0.08326533  0.24934886  1.0
  Ni  Ni223  1  0.99500867  0.41659867  0.24934886  1.0
  Ni  Ni224  1  0.99500867  0.74993200  0.24934886  1.0
  Ni  Ni225  1  0.16022400  0.08326533  0.25059286  1.0
  Ni  Ni226  1  0.16022400  0.41659867  0.25059286  1.0
  Ni  Ni227  1  0.16022400  0.74993200  0.25059286  1.0
  Ni  Ni228  1  0.49355733  0.08326533  0.25059286  1.0
  Ni  Ni229  1  0.49355733  0.41659867  0.25059286  1.0
  Ni  Ni230  1  0.49355733  0.74993200  0.25059286  1.0
  Ni  Ni231  1  0.82689067  0.08326533  0.25059286  1.0
  Ni  Ni232  1  0.82689067  0.41659867  0.25059286  1.0
  Ni  Ni233  1  0.82689067  0.74993200  0.25059286  1.0
  Ni  Ni234  1  0.16285700  0.08346833  0.17862929  1.0
  Ni  Ni235  1  0.16285700  0.41680167  0.17862929  1.0
  Ni  Ni236  1  0.16285700  0.75013500  0.17862929  1.0
  Ni  Ni237  1  0.49619033  0.08346833  0.17862929  1.0
  Ni  Ni238  1  0.49619033  0.41680167  0.17862929  1.0
  Ni  Ni239  1  0.49619033  0.75013500  0.17862929  1.0
  Ni  Ni240  1  0.82952367  0.08346833  0.17862929  1.0
  Ni  Ni241  1  0.82952367  0.41680167  0.17862929  1.0
  Ni  Ni242  1  0.82952367  0.75013500  0.17862929  1.0
  Ni  Ni243  1  0.03539067  0.14065533  0.25071557  1.0
  Ni  Ni244  1  0.03539067  0.47398867  0.25071557  1.0
  Ni  Ni245  1  0.03539067  0.80732200  0.25071557  1.0
  Ni  Ni246  1  0.36872400  0.14065533  0.25071557  1.0
  Ni  Ni247  1  0.36872400  0.47398867  0.25071557  1.0
  Ni  Ni248  1  0.36872400  0.80732200  0.25071557  1.0
  Ni  Ni249  1  0.70205733  0.14065533  0.25071557  1.0
  Ni  Ni250  1  0.70205733  0.47398867  0.25071557  1.0
  Ni  Ni251  1  0.70205733  0.80732200  0.25071557  1.0
  Ni  Ni252  1  0.14640500  0.14065533  0.15556043  1.0
  Ni  Ni253  1  0.14640500  0.47398867  0.15556043  1.0
  Ni  Ni254  1  0.14640500  0.80732200  0.15556043  1.0
  Ni  Ni255  1  0.47973833  0.14065533  0.15556043  1.0
  Ni  Ni256  1  0.47973833  0.47398867  0.15556043  1.0
  Ni  Ni257  1  0.47973833  0.80732200  0.15556043  1.0
  Ni  Ni258  1  0.81307167  0.14065533  0.15556043  1.0
  Ni  Ni259  1  0.81307167  0.47398867  0.15556043  1.0
  Ni  Ni260  1  0.81307167  0.80732200  0.15556043  1.0
  Ni  Ni261  1  0.29794267  0.19267800  0.17785586  1.0
  Ni  Ni262  1  0.29794267  0.52601133  0.17785586  1.0
  Ni  Ni263  1  0.29794267  0.85934467  0.17785586  1.0
  Ni  Ni264  1  0.63127600  0.19267800  0.17785586  1.0
  Ni  Ni265  1  0.63127600  0.52601133  0.17785586  1.0
  Ni  Ni266  1  0.63127600  0.85934467  0.17785586  1.0
  Ni  Ni267  1  0.96460933  0.19267800  0.17785586  1.0
  Ni  Ni268  1  0.96460933  0.52601133  0.17785586  1.0
  Ni  Ni269  1  0.96460933  0.85934467  0.17785586  1.0
  Ni  Ni270  1  0.18692833  0.19267800  0.27301100  1.0
  Ni  Ni271  1  0.18692833  0.52601133  0.27301100  1.0
  Ni  Ni272  1  0.18692833  0.85934467  0.27301100  1.0
  Ni  Ni273  1  0.52026167  0.19267800  0.27301100  1.0
  Ni  Ni274  1  0.52026167  0.52601133  0.27301100  1.0
  Ni  Ni275  1  0.52026167  0.85934467  0.27301100  1.0
  Ni  Ni276  1  0.85359500  0.19267800  0.27301100  1.0
  Ni  Ni277  1  0.85359500  0.52601133  0.27301100  1.0
  Ni  Ni278  1  0.85359500  0.85934467  0.27301100  1.0
  Ni  Ni279  1  0.17047633  0.24986500  0.24994214  1.0
  Ni  Ni280  1  0.17047633  0.58319833  0.24994214  1.0
  Ni  Ni281  1  0.17047633  0.91653167  0.24994214  1.0
  Ni  Ni282  1  0.50380967  0.24986500  0.24994214  1.0
  Ni  Ni283  1  0.50380967  0.58319833  0.24994214  1.0
  Ni  Ni284  1  0.50380967  0.91653167  0.24994214  1.0
  Ni  Ni285  1  0.83714300  0.24986500  0.24994214  1.0
  Ni  Ni286  1  0.83714300  0.58319833  0.24994214  1.0
  Ni  Ni287  1  0.83714300  0.91653167  0.24994214  1.0
  Ni  Ni288  1  0.00499133  0.25006800  0.17922257  1.0
  Ni  Ni289  1  0.00499133  0.58340133  0.17922257  1.0
  Ni  Ni290  1  0.00499133  0.91673467  0.17922257  1.0
  Ni  Ni291  1  0.33832467  0.25006800  0.17922257  1.0
  Ni  Ni292  1  0.33832467  0.58340133  0.17922257  1.0
  Ni  Ni293  1  0.33832467  0.91673467  0.17922257  1.0
  Ni  Ni294  1  0.67165800  0.25006800  0.17922257  1.0
  Ni  Ni295  1  0.67165800  0.58340133  0.17922257  1.0
  Ni  Ni296  1  0.67165800  0.91673467  0.17922257  1.0
  Ni  Ni297  1  0.17310933  0.25006800  0.17797857  1.0
  Ni  Ni298  1  0.17310933  0.58340133  0.17797857  1.0
  Ni  Ni299  1  0.17310933  0.91673467  0.17797857  1.0
  Ni  Ni300  1  0.50644267  0.25006800  0.17797857  1.0
  Ni  Ni301  1  0.50644267  0.58340133  0.17797857  1.0
  Ni  Ni302  1  0.50644267  0.91673467  0.17797857  1.0
  Ni  Ni303  1  0.83977600  0.25006800  0.17797857  1.0
  Ni  Ni304  1  0.83977600  0.58340133  0.17797857  1.0
  Ni  Ni305  1  0.83977600  0.91673467  0.17797857  1.0
  Ni  Ni306  1  0.04345333  0.30731633  0.17876386  1.0
  Ni  Ni307  1  0.04345333  0.64064967  0.17876386  1.0
  Ni  Ni308  1  0.04345333  0.97398300  0.17876386  1.0
  Ni  Ni309  1  0.37678667  0.30731633  0.17876386  1.0
  Ni  Ni310  1  0.37678667  0.64064967  0.17876386  1.0
  Ni  Ni311  1  0.37678667  0.97398300  0.17876386  1.0
  Ni  Ni312  1  0.71012000  0.30731633  0.17876386  1.0
  Ni  Ni313  1  0.71012000  0.64064967  0.17876386  1.0
  Ni  Ni314  1  0.71012000  0.97398300  0.17876386  1.0
  Ni  Ni315  1  0.15325267  0.30731633  0.22750729  1.0
  Ni  Ni316  1  0.15325267  0.64064967  0.22750729  1.0
  Ni  Ni317  1  0.15325267  0.97398300  0.22750729  1.0
  Ni  Ni318  1  0.48658600  0.30731633  0.22750729  1.0
  Ni  Ni319  1  0.48658600  0.64064967  0.22750729  1.0
  Ni  Ni320  1  0.48658600  0.97398300  0.22750729  1.0
  Ni  Ni321  1  0.81991933  0.30731633  0.22750729  1.0
  Ni  Ni322  1  0.81991933  0.64064967  0.22750729  1.0
  Ni  Ni323  1  0.81991933  0.97398300  0.22750729  1.0
  Zr  Zr324  1  0.05119800  0.03785233  0.30193671  1.0
  Zr  Zr325  1  0.05119800  0.37118567  0.30193671  1.0
  Zr  Zr326  1  0.05119800  0.70451900  0.30193671  1.0
  Zr  Zr327  1  0.38453133  0.03785233  0.30193671  1.0
  Zr  Zr328  1  0.38453133  0.37118567  0.30193671  1.0
  Zr  Zr329  1  0.38453133  0.70451900  0.30193671  1.0
  Zr  Zr330  1  0.71786467  0.03785233  0.30193671  1.0
  Zr  Zr331  1  0.71786467  0.37118567  0.30193671  1.0
  Zr  Zr332  1  0.71786467  0.70451900  0.30193671  1.0
  Zr  Zr333  1  0.27464933  0.12842467  0.34075343  1.0
  Zr  Zr334  1  0.27464933  0.46175800  0.34075343  1.0
  Zr  Zr335  1  0.27464933  0.79509133  0.34075343  1.0
  Zr  Zr336  1  0.60798267  0.12842467  0.34075343  1.0
  Zr  Zr337  1  0.60798267  0.46175800  0.34075343  1.0
  Zr  Zr338  1  0.60798267  0.79509133  0.34075343  1.0
  Zr  Zr339  1  0.94131600  0.12842467  0.34075343  1.0
  Zr  Zr340  1  0.94131600  0.46175800  0.34075343  1.0
  Zr  Zr341  1  0.94131600  0.79509133  0.34075343  1.0
  Zr  Zr342  1  0.05868400  0.20490867  0.37353229  1.0
  Zr  Zr343  1  0.05868400  0.53824200  0.37353229  1.0
  Zr  Zr344  1  0.05868400  0.87157533  0.37353229  1.0
  Zr  Zr345  1  0.39201733  0.20490867  0.37353229  1.0
  Zr  Zr346  1  0.39201733  0.53824200  0.37353229  1.0
  Zr  Zr347  1  0.39201733  0.87157533  0.37353229  1.0
  Zr  Zr348  1  0.72535067  0.20490867  0.37353229  1.0
  Zr  Zr349  1  0.72535067  0.53824200  0.37353229  1.0
  Zr  Zr350  1  0.72535067  0.87157533  0.37353229  1.0
  Zr  Zr351  1  0.28213533  0.29548100  0.41234900  1.0
  Zr  Zr352  1  0.28213533  0.62881433  0.41234900  1.0
  Zr  Zr353  1  0.28213533  0.96214767  0.41234900  1.0
  Zr  Zr354  1  0.61546867  0.29548100  0.41234900  1.0
  Zr  Zr355  1  0.61546867  0.62881433  0.41234900  1.0
  Zr  Zr356  1  0.61546867  0.96214767  0.41234900  1.0
  Zr  Zr357  1  0.94880200  0.29548100  0.41234900  1.0
  Zr  Zr358  1  0.94880200  0.62881433  0.41234900  1.0
  Zr  Zr359  1  0.94880200  0.96214767  0.41234900  1.0
  Ni  Ni360  1  0.28988000  0.02601700  0.39266471  1.0
  Ni  Ni361  1  0.28988000  0.35935033  0.39266471  1.0
  Ni  Ni362  1  0.28988000  0.69268367  0.39266471  1.0
  Ni  Ni363  1  0.62321333  0.02601700  0.39266471  1.0
  Ni  Ni364  1  0.62321333  0.35935033  0.39266471  1.0
  Ni  Ni365  1  0.62321333  0.69268367  0.39266471  1.0
  Ni  Ni366  1  0.95654667  0.02601700  0.39266471  1.0
  Ni  Ni367  1  0.95654667  0.35935033  0.39266471  1.0
  Ni  Ni368  1  0.95654667  0.69268367  0.39266471  1.0
  Ni  Ni369  1  0.18008067  0.02601700  0.34392129  1.0
  Ni  Ni370  1  0.18008067  0.35935033  0.34392129  1.0
  Ni  Ni371  1  0.18008067  0.69268367  0.34392129  1.0
  Ni  Ni372  1  0.51341400  0.02601700  0.34392129  1.0
  Ni  Ni373  1  0.51341400  0.35935033  0.34392129  1.0
  Ni  Ni374  1  0.51341400  0.69268367  0.34392129  1.0
  Ni  Ni375  1  0.84674733  0.02601700  0.34392129  1.0
  Ni  Ni376  1  0.84674733  0.35935033  0.34392129  1.0
  Ni  Ni377  1  0.84674733  0.69268367  0.34392129  1.0
  Ni  Ni378  1  0.32834200  0.08326533  0.39220600  1.0
  Ni  Ni379  1  0.32834200  0.41659867  0.39220600  1.0
  Ni  Ni380  1  0.32834200  0.74993200  0.39220600  1.0
  Ni  Ni381  1  0.66167533  0.08326533  0.39220600  1.0
  Ni  Ni382  1  0.66167533  0.41659867  0.39220600  1.0
  Ni  Ni383  1  0.66167533  0.74993200  0.39220600  1.0
  Ni  Ni384  1  0.99500867  0.08326533  0.39220600  1.0
  Ni  Ni385  1  0.99500867  0.41659867  0.39220600  1.0
  Ni  Ni386  1  0.99500867  0.74993200  0.39220600  1.0
  Ni  Ni387  1  0.16022400  0.08326533  0.39345000  1.0
  Ni  Ni388  1  0.16022400  0.41659867  0.39345000  1.0
  Ni  Ni389  1  0.16022400  0.74993200  0.39345000  1.0
  Ni  Ni390  1  0.49355733  0.08326533  0.39345000  1.0
  Ni  Ni391  1  0.49355733  0.41659867  0.39345000  1.0
  Ni  Ni392  1  0.49355733  0.74993200  0.39345000  1.0
  Ni  Ni393  1  0.82689067  0.08326533  0.39345000  1.0
  Ni  Ni394  1  0.82689067  0.41659867  0.39345000  1.0
  Ni  Ni395  1  0.82689067  0.74993200  0.39345000  1.0
  Ni  Ni396  1  0.16285700  0.08346833  0.32148643  1.0
  Ni  Ni397  1  0.16285700  0.41680167  0.32148643  1.0
  Ni  Ni398  1  0.16285700  0.75013500  0.32148643  1.0
  Ni  Ni399  1  0.49619033  0.08346833  0.32148643  1.0
  Ni  Ni400  1  0.49619033  0.41680167  0.32148643  1.0
  Ni  Ni401  1  0.49619033  0.75013500  0.32148643  1.0
  Ni  Ni402  1  0.82952367  0.08346833  0.32148643  1.0
  Ni  Ni403  1  0.82952367  0.41680167  0.32148643  1.0
  Ni  Ni404  1  0.82952367  0.75013500  0.32148643  1.0
  Ni  Ni405  1  0.03539067  0.14065533  0.39357271  1.0
  Ni  Ni406  1  0.03539067  0.47398867  0.39357271  1.0
  Ni  Ni407  1  0.03539067  0.80732200  0.39357271  1.0
  Ni  Ni408  1  0.36872400  0.14065533  0.39357271  1.0
  Ni  Ni409  1  0.36872400  0.47398867  0.39357271  1.0
  Ni  Ni410  1  0.36872400  0.80732200  0.39357271  1.0
  Ni  Ni411  1  0.70205733  0.14065533  0.39357271  1.0
  Ni  Ni412  1  0.70205733  0.47398867  0.39357271  1.0
  Ni  Ni413  1  0.70205733  0.80732200  0.39357271  1.0
  Ni  Ni414  1  0.14640500  0.14065533  0.29841757  1.0
  Ni  Ni415  1  0.14640500  0.47398867  0.29841757  1.0
  Ni  Ni416  1  0.14640500  0.80732200  0.29841757  1.0
  Ni  Ni417  1  0.47973833  0.14065533  0.29841757  1.0
  Ni  Ni418  1  0.47973833  0.47398867  0.29841757  1.0
  Ni  Ni419  1  0.47973833  0.80732200  0.29841757  1.0
  Ni  Ni420  1  0.81307167  0.14065533  0.29841757  1.0
  Ni  Ni421  1  0.81307167  0.47398867  0.29841757  1.0
  Ni  Ni422  1  0.81307167  0.80732200  0.29841757  1.0
  Ni  Ni423  1  0.29794267  0.19267800  0.32071300  1.0
  Ni  Ni424  1  0.29794267  0.52601133  0.32071300  1.0
  Ni  Ni425  1  0.29794267  0.85934467  0.32071300  1.0
  Ni  Ni426  1  0.63127600  0.19267800  0.32071300  1.0
  Ni  Ni427  1  0.63127600  0.52601133  0.32071300  1.0
  Ni  Ni428  1  0.63127600  0.85934467  0.32071300  1.0
  Ni  Ni429  1  0.96460933  0.19267800  0.32071300  1.0
  Ni  Ni430  1  0.96460933  0.52601133  0.32071300  1.0
  Ni  Ni431  1  0.96460933  0.85934467  0.32071300  1.0
  Ni  Ni432  1  0.18692833  0.19267800  0.41586814  1.0
  Ni  Ni433  1  0.18692833  0.52601133  0.41586814  1.0
  Ni  Ni434  1  0.18692833  0.85934467  0.41586814  1.0
  Ni  Ni435  1  0.52026167  0.19267800  0.41586814  1.0
  Ni  Ni436  1  0.52026167  0.52601133  0.41586814  1.0
  Ni  Ni437  1  0.52026167  0.85934467  0.41586814  1.0
  Ni  Ni438  1  0.85359500  0.19267800  0.41586814  1.0
  Ni  Ni439  1  0.85359500  0.52601133  0.41586814  1.0
  Ni  Ni440  1  0.85359500  0.85934467  0.41586814  1.0
  Ni  Ni441  1  0.17047633  0.24986500  0.39279929  1.0
  Ni  Ni442  1  0.17047633  0.58319833  0.39279929  1.0
  Ni  Ni443  1  0.17047633  0.91653167  0.39279929  1.0
  Ni  Ni444  1  0.50380967  0.24986500  0.39279929  1.0
  Ni  Ni445  1  0.50380967  0.58319833  0.39279929  1.0
  Ni  Ni446  1  0.50380967  0.91653167  0.39279929  1.0
  Ni  Ni447  1  0.83714300  0.24986500  0.39279929  1.0
  Ni  Ni448  1  0.83714300  0.58319833  0.39279929  1.0
  Ni  Ni449  1  0.83714300  0.91653167  0.39279929  1.0
  Ni  Ni450  1  0.00499133  0.25006800  0.32207971  1.0
  Ni  Ni451  1  0.00499133  0.58340133  0.32207971  1.0
  Ni  Ni452  1  0.00499133  0.91673467  0.32207971  1.0
  Ni  Ni453  1  0.33832467  0.25006800  0.32207971  1.0
  Ni  Ni454  1  0.33832467  0.58340133  0.32207971  1.0
  Ni  Ni455  1  0.33832467  0.91673467  0.32207971  1.0
  Ni  Ni456  1  0.67165800  0.25006800  0.32207971  1.0
  Ni  Ni457  1  0.67165800  0.58340133  0.32207971  1.0
  Ni  Ni458  1  0.67165800  0.91673467  0.32207971  1.0
  Ni  Ni459  1  0.17310933  0.25006800  0.32083571  1.0
  Ni  Ni460  1  0.17310933  0.58340133  0.32083571  1.0
  Ni  Ni461  1  0.17310933  0.91673467  0.32083571  1.0
  Ni  Ni462  1  0.50644267  0.25006800  0.32083571  1.0
  Ni  Ni463  1  0.50644267  0.58340133  0.32083571  1.0
  Ni  Ni464  1  0.50644267  0.91673467  0.32083571  1.0
  Ni  Ni465  1  0.83977600  0.25006800  0.32083571  1.0
  Ni  Ni466  1  0.83977600  0.58340133  0.32083571  1.0
  Ni  Ni467  1  0.83977600  0.91673467  0.32083571  1.0
  Ni  Ni468  1  0.04345333  0.30731633  0.32162100  1.0
  Ni  Ni469  1  0.04345333  0.64064967  0.32162100  1.0
  Ni  Ni470  1  0.04345333  0.97398300  0.32162100  1.0
  Ni  Ni471  1  0.37678667  0.30731633  0.32162100  1.0
  Ni  Ni472  1  0.37678667  0.64064967  0.32162100  1.0
  Ni  Ni473  1  0.37678667  0.97398300  0.32162100  1.0
  Ni  Ni474  1  0.71012000  0.30731633  0.32162100  1.0
  Ni  Ni475  1  0.71012000  0.64064967  0.32162100  1.0
  Ni  Ni476  1  0.71012000  0.97398300  0.32162100  1.0
  Ni  Ni477  1  0.15325267  0.30731633  0.37036443  1.0
  Ni  Ni478  1  0.15325267  0.64064967  0.37036443  1.0
  Ni  Ni479  1  0.15325267  0.97398300  0.37036443  1.0
  Ni  Ni480  1  0.48658600  0.30731633  0.37036443  1.0
  Ni  Ni481  1  0.48658600  0.64064967  0.37036443  1.0
  Ni  Ni482  1  0.48658600  0.97398300  0.37036443  1.0
  Ni  Ni483  1  0.81991933  0.30731633  0.37036443  1.0
  Ni  Ni484  1  0.81991933  0.64064967  0.37036443  1.0
  Ni  Ni485  1  0.81991933  0.97398300  0.37036443  1.0
