# generated using pymatgen
data_Zr2Ni7
_symmetry_space_group_name_H-M   'P 1'
_cell_length_a   14.21199375
_cell_length_b   18.86847006
_cell_length_c   33.16131875
_cell_angle_alpha   97.87008661
_cell_angle_beta   59.35718007
_cell_angle_gamma   82.12991339
_symmetry_Int_Tables_number   1
_chemical_formula_structural   Zr2Ni7
_chemical_formula_sum   'Zr54 Ni189'
_cell_volume   7352.38201987
_cell_formula_units_Z   27
loop_
 _symmetry_equiv_pos_site_id
 _symmetry_equiv_pos_as_xyz
  1  'x, y, z'
loop_
 _atom_site_type_symbol
 _atom_site_label
 _atom_site_symmetry_multiplicity
 _atom_site_fract_x
 _atom_site_fract_y
 _atom_site_fract_z
 _atom_site_occupancy
  Zr  Zr0  1  0.13097033  0.25723567  0.08391450  1.0
  Zr  Zr1  1  0.13097033  0.59056900  0.08391450  1.0
  Zr  Zr2  1  0.13097033  0.92390233  0.08391450  1.0
  Zr  Zr3  1  0.46430367  0.25723567  0.08391450  1.0
  Zr  Zr4  1  0.46430367  0.59056900  0.08391450  1.0
  Zr  Zr5  1  0.46430367  0.92390233  0.08391450  1.0
  Zr  Zr6  1  0.79763700  0.25723567  0.08391450  1.0
  Zr  Zr7  1  0.79763700  0.59056900  0.08391450  1.0
  Zr  Zr8  1  0.79763700  0.92390233  0.08391450  1.0
  Zr  Zr9  1  0.20236300  0.07609767  0.05331764  1.0
  Zr  Zr10  1  0.20236300  0.40943100  0.05331764  1.0
  Zr  Zr11  1  0.20236300  0.74276433  0.05331764  1.0
  Zr  Zr12  1  0.53569633  0.07609767  0.05331764  1.0
  Zr  Zr13  1  0.53569633  0.40943100  0.05331764  1.0
  Zr  Zr14  1  0.53569633  0.74276433  0.05331764  1.0
  Zr  Zr15  1  0.86902967  0.07609767  0.05331764  1.0
  Zr  Zr16  1  0.86902967  0.40943100  0.05331764  1.0
  Zr  Zr17  1  0.86902967  0.74276433  0.05331764  1.0
  Ni  Ni18  1  0.00000000  0.16666667  0.14004464  1.0
  Ni  Ni19  1  0.00000000  0.50000000  0.14004464  1.0
  Ni  Ni20  1  0.00000000  0.83333333  0.14004464  1.0
  Ni  Ni21  1  0.33333333  0.16666667  0.14004464  1.0
  Ni  Ni22  1  0.33333333  0.50000000  0.14004464  1.0
  Ni  Ni23  1  0.33333333  0.83333333  0.14004464  1.0
  Ni  Ni24  1  0.66666667  0.16666667  0.14004464  1.0
  Ni  Ni25  1  0.66666667  0.50000000  0.14004464  1.0
  Ni  Ni26  1  0.66666667  0.83333333  0.14004464  1.0
  Ni  Ni27  1  0.23588500  0.28119700  0.13441964  1.0
  Ni  Ni28  1  0.23588500  0.61453033  0.13441964  1.0
  Ni  Ni29  1  0.23588500  0.94786367  0.13441964  1.0
  Ni  Ni30  1  0.56921833  0.28119700  0.13441964  1.0
  Ni  Ni31  1  0.56921833  0.61453033  0.13441964  1.0
  Ni  Ni32  1  0.56921833  0.94786367  0.13441964  1.0
  Ni  Ni33  1  0.90255167  0.28119700  0.13441964  1.0
  Ni  Ni34  1  0.90255167  0.61453033  0.13441964  1.0
  Ni  Ni35  1  0.90255167  0.94786367  0.13441964  1.0
  Ni  Ni36  1  0.32020833  0.05213633  0.09828107  1.0
  Ni  Ni37  1  0.32020833  0.38546967  0.09828107  1.0
  Ni  Ni38  1  0.32020833  0.71880300  0.09828107  1.0
  Ni  Ni39  1  0.65354167  0.05213633  0.09828107  1.0
  Ni  Ni40  1  0.65354167  0.38546967  0.09828107  1.0
  Ni  Ni41  1  0.65354167  0.71880300  0.09828107  1.0
  Ni  Ni42  1  0.98687500  0.05213633  0.09828107  1.0
  Ni  Ni43  1  0.98687500  0.38546967  0.09828107  1.0
  Ni  Ni44  1  0.98687500  0.71880300  0.09828107  1.0
  Ni  Ni45  1  0.09744833  0.05213633  0.00281250  1.0
  Ni  Ni46  1  0.09744833  0.38546967  0.00281250  1.0
  Ni  Ni47  1  0.09744833  0.71880300  0.00281250  1.0
  Ni  Ni48  1  0.43078167  0.05213633  0.00281250  1.0
  Ni  Ni49  1  0.43078167  0.38546967  0.00281250  1.0
  Ni  Ni50  1  0.43078167  0.71880300  0.00281250  1.0
  Ni  Ni51  1  0.76411500  0.05213633  0.00281250  1.0
  Ni  Ni52  1  0.76411500  0.38546967  0.00281250  1.0
  Ni  Ni53  1  0.76411500  0.71880300  0.00281250  1.0
  Ni  Ni54  1  0.01312500  0.28119700  0.03895107  1.0
  Ni  Ni55  1  0.01312500  0.61453033  0.03895107  1.0
  Ni  Ni56  1  0.01312500  0.94786367  0.03895107  1.0
  Ni  Ni57  1  0.34645833  0.28119700  0.03895107  1.0
  Ni  Ni58  1  0.34645833  0.61453033  0.03895107  1.0
  Ni  Ni59  1  0.34645833  0.94786367  0.03895107  1.0
  Ni  Ni60  1  0.67979167  0.28119700  0.03895107  1.0
  Ni  Ni61  1  0.67979167  0.61453033  0.03895107  1.0
  Ni  Ni62  1  0.67979167  0.94786367  0.03895107  1.0
  Ni  Ni63  1  0.16666667  0.16666667  0.14004464  1.0
  Ni  Ni64  1  0.16666667  0.50000000  0.14004464  1.0
  Ni  Ni65  1  0.16666667  0.83333333  0.14004464  1.0
  Ni  Ni66  1  0.50000000  0.16666667  0.14004464  1.0
  Ni  Ni67  1  0.50000000  0.50000000  0.14004464  1.0
  Ni  Ni68  1  0.50000000  0.83333333  0.14004464  1.0
  Ni  Ni69  1  0.83333333  0.16666667  0.14004464  1.0
  Ni  Ni70  1  0.83333333  0.50000000  0.14004464  1.0
  Ni  Ni71  1  0.83333333  0.83333333  0.14004464  1.0
  Ni  Ni72  1  0.00000000  0.16666667  0.06861607  1.0
  Ni  Ni73  1  0.00000000  0.50000000  0.06861607  1.0
  Ni  Ni74  1  0.00000000  0.83333333  0.06861607  1.0
  Ni  Ni75  1  0.33333333  0.16666667  0.06861607  1.0
  Ni  Ni76  1  0.33333333  0.50000000  0.06861607  1.0
  Ni  Ni77  1  0.33333333  0.83333333  0.06861607  1.0
  Ni  Ni78  1  0.66666667  0.16666667  0.06861607  1.0
  Ni  Ni79  1  0.66666667  0.50000000  0.06861607  1.0
  Ni  Ni80  1  0.66666667  0.83333333  0.06861607  1.0
  Zr  Zr81  1  0.13097033  0.25723567  0.22677164  1.0
  Zr  Zr82  1  0.13097033  0.59056900  0.22677164  1.0
  Zr  Zr83  1  0.13097033  0.92390233  0.22677164  1.0
  Zr  Zr84  1  0.46430367  0.25723567  0.22677164  1.0
  Zr  Zr85  1  0.46430367  0.59056900  0.22677164  1.0
  Zr  Zr86  1  0.46430367  0.92390233  0.22677164  1.0
  Zr  Zr87  1  0.79763700  0.25723567  0.22677164  1.0
  Zr  Zr88  1  0.79763700  0.59056900  0.22677164  1.0
  Zr  Zr89  1  0.79763700  0.92390233  0.22677164  1.0
  Zr  Zr90  1  0.20236300  0.07609767  0.19617479  1.0
  Zr  Zr91  1  0.20236300  0.40943100  0.19617479  1.0
  Zr  Zr92  1  0.20236300  0.74276433  0.19617479  1.0
  Zr  Zr93  1  0.53569633  0.07609767  0.19617479  1.0
  Zr  Zr94  1  0.53569633  0.40943100  0.19617479  1.0
  Zr  Zr95  1  0.53569633  0.74276433  0.19617479  1.0
  Zr  Zr96  1  0.86902967  0.07609767  0.19617479  1.0
  Zr  Zr97  1  0.86902967  0.40943100  0.19617479  1.0
  Zr  Zr98  1  0.86902967  0.74276433  0.19617479  1.0
  Ni  Ni99  1  0.00000000  0.16666667  0.28290179  1.0
  Ni  Ni100  1  0.00000000  0.50000000  0.28290179  1.0
  Ni  Ni101  1  0.00000000  0.83333333  0.28290179  1.0
  Ni  Ni102  1  0.33333333  0.16666667  0.28290179  1.0
  Ni  Ni103  1  0.33333333  0.50000000  0.28290179  1.0
  Ni  Ni104  1  0.33333333  0.83333333  0.28290179  1.0
  Ni  Ni105  1  0.66666667  0.16666667  0.28290179  1.0
  Ni  Ni106  1  0.66666667  0.50000000  0.28290179  1.0
  Ni  Ni107  1  0.66666667  0.83333333  0.28290179  1.0
  Ni  Ni108  1  0.23588500  0.28119700  0.27727679  1.0
  Ni  Ni109  1  0.23588500  0.61453033  0.27727679  1.0
  Ni  Ni110  1  0.23588500  0.94786367  0.27727679  1.0
  Ni  Ni111  1  0.56921833  0.28119700  0.27727679  1.0
  Ni  Ni112  1  0.56921833  0.61453033  0.27727679  1.0
  Ni  Ni113  1  0.56921833  0.94786367  0.27727679  1.0
  Ni  Ni114  1  0.90255167  0.28119700  0.27727679  1.0
  Ni  Ni115  1  0.90255167  0.61453033  0.27727679  1.0
  Ni  Ni116  1  0.90255167  0.94786367  0.27727679  1.0
  Ni  Ni117  1  0.32020833  0.05213633  0.24113821  1.0
  Ni  Ni118  1  0.32020833  0.38546967  0.24113821  1.0
  Ni  Ni119  1  0.32020833  0.71880300  0.24113821  1.0
  Ni  Ni120  1  0.65354167  0.05213633  0.24113821  1.0
  Ni  Ni121  1  0.65354167  0.38546967  0.24113821  1.0
  Ni  Ni122  1  0.65354167  0.71880300  0.24113821  1.0
  Ni  Ni123  1  0.98687500  0.05213633  0.24113821  1.0
  Ni  Ni124  1  0.98687500  0.38546967  0.24113821  1.0
  Ni  Ni125  1  0.98687500  0.71880300  0.24113821  1.0
  Ni  Ni126  1  0.09744833  0.05213633  0.14566964  1.0
  Ni  Ni127  1  0.09744833  0.38546967  0.14566964  1.0
  Ni  Ni128  1  0.09744833  0.71880300  0.14566964  1.0
  Ni  Ni129  1  0.43078167  0.05213633  0.14566964  1.0
  Ni  Ni130  1  0.43078167  0.38546967  0.14566964  1.0
  Ni  Ni131  1  0.43078167  0.71880300  0.14566964  1.0
  Ni  Ni132  1  0.76411500  0.05213633  0.14566964  1.0
  Ni  Ni133  1  0.76411500  0.38546967  0.14566964  1.0
  Ni  Ni134  1  0.76411500  0.71880300  0.14566964  1.0
  Ni  Ni135  1  0.01312500  0.28119700  0.18180821  1.0
  Ni  Ni136  1  0.01312500  0.61453033  0.18180821  1.0
  Ni  Ni137  1  0.01312500  0.94786367  0.18180821  1.0
  Ni  Ni138  1  0.34645833  0.28119700  0.18180821  1.0
  Ni  Ni139  1  0.34645833  0.61453033  0.18180821  1.0
  Ni  Ni140  1  0.34645833  0.94786367  0.18180821  1.0
  Ni  Ni141  1  0.67979167  0.28119700  0.18180821  1.0
  Ni  Ni142  1  0.67979167  0.61453033  0.18180821  1.0
  Ni  Ni143  1  0.67979167  0.94786367  0.18180821  1.0
  Ni  Ni144  1  0.16666667  0.16666667  0.28290179  1.0
  Ni  Ni145  1  0.16666667  0.50000000  0.28290179  1.0
  Ni  Ni146  1  0.16666667  0.83333333  0.28290179  1.0
  Ni  Ni147  1  0.50000000  0.16666667  0.28290179  1.0
  Ni  Ni148  1  0.50000000  0.50000000  0.28290179  1.0
  Ni  Ni149  1  0.50000000  0.83333333  0.28290179  1.0
  Ni  Ni150  1  0.83333333  0.16666667  0.28290179  1.0
  Ni  Ni151  1  0.83333333  0.50000000  0.28290179  1.0
  Ni  Ni152  1  0.83333333  0.83333333  0.28290179  1.0
  Ni  Ni153  1  0.00000000  0.16666667  0.21147321  1.0
  Ni  Ni154  1  0.00000000  0.50000000  0.21147321  1.0
  Ni  Ni155  1  0.00000000  0.83333333  0.21147321  1.0
  Ni  Ni156  1  0.33333333  0.16666667  0.21147321  1.0
  Ni  Ni157  1  0.33333333  0.50000000  0.21147321  1.0
  Ni  Ni158  1  0.33333333  0.83333333  0.21147321  1.0
  Ni  Ni159  1  0.66666667  0.16666667  0.21147321  1.0
  Ni  Ni160  1  0.66666667  0.50000000  0.21147321  1.0
  Ni  Ni161  1  0.66666667  0.83333333  0.21147321  1.0
  Zr  Zr162  1  0.13097033  0.25723567  0.36962879  1.0
  Zr  Zr163  1  0.13097033  0.59056900  0.36962879  1.0
  Zr  Zr164  1  0.13097033  0.92390233  0.36962879  1.0
  Zr  Zr165  1  0.46430367  0.25723567  0.36962879  1.0
  Zr  Zr166  1  0.46430367  0.59056900  0.36962879  1.0
  Zr  Zr167  1  0.46430367  0.92390233  0.36962879  1.0
  Zr  Zr168  1  0.79763700  0.25723567  0.36962879  1.0
  Zr  Zr169  1  0.79763700  0.59056900  0.36962879  1.0
  Zr  Zr170  1  0.79763700  0.92390233  0.36962879  1.0
  Zr  Zr171  1  0.20236300  0.07609767  0.33903193  1.0
  Zr  Zr172  1  0.20236300  0.40943100  0.33903193  1.0
  Zr  Zr173  1  0.20236300  0.74276433  0.33903193  1.0
  Zr  Zr174  1  0.53569633  0.07609767  0.33903193  1.0
  Zr  Zr175  1  0.53569633  0.40943100  0.33903193  1.0
  Zr  Zr176  1  0.53569633  0.74276433  0.33903193  1.0
  Zr  Zr177  1  0.86902967  0.07609767  0.33903193  1.0
  Zr  Zr178  1  0.86902967  0.40943100  0.33903193  1.0
  Zr  Zr179  1  0.86902967  0.74276433  0.33903193  1.0
  Ni  Ni180  1  0.00000000  0.16666667  0.42575893  1.0
  Ni  Ni181  1  0.00000000  0.50000000  0.42575893  1.0
  Ni  Ni182  1  0.00000000  0.83333333  0.42575893  1.0
  Ni  Ni183  1  0.33333333  0.16666667  0.42575893  1.0
  Ni  Ni184  1  0.33333333  0.50000000  0.42575893  1.0
  Ni  Ni185  1  0.33333333  0.83333333  0.42575893  1.0
  Ni  Ni186  1  0.66666667  0.16666667  0.42575893  1.0
  Ni  Ni187  1  0.66666667  0.50000000  0.42575893  1.0
  Ni  Ni188  1  0.66666667  0.83333333  0.42575893  1.0
  Ni  Ni189  1  0.23588500  0.28119700  0.42013393  1.0
  Ni  Ni190  1  0.23588500  0.61453033  0.42013393  1.0
  Ni  Ni191  1  0.23588500  0.94786367  0.42013393  1.0
  Ni  Ni192  1  0.56921833  0.28119700  0.42013393  1.0
  Ni  Ni193  1  0.56921833  0.61453033  0.42013393  1.0
  Ni  Ni194  1  0.56921833  0.94786367  0.42013393  1.0
  Ni  Ni195  1  0.90255167  0.28119700  0.42013393  1.0
  Ni  Ni196  1  0.90255167  0.61453033  0.42013393  1.0
  Ni  Ni197  1  0.90255167  0.94786367  0.42013393  1.0
  Ni  Ni198  1  0.32020833  0.05213633  0.38399536  1.0
  Ni  Ni199  1  0.32020833  0.38546967  0.38399536  1.0
  Ni  Ni200  1  0.32020833  0.71880300  0.38399536  1.0
  Ni  Ni201  1  0.65354167  0.05213633  0.38399536  1.0
  Ni  Ni202  1  0.65354167  0.38546967  0.38399536  1.0
  Ni  Ni203  1  0.65354167  0.71880300  0.38399536  1.0
  Ni  Ni204  1  0.98687500  0.05213633  0.38399536  1.0
  Ni  Ni205  1  0.98687500  0.38546967  0.38399536  1.0
  Ni  Ni206  1  0.98687500  0.71880300  0.38399536  1.0
  Ni  Ni207  1  0.09744833  0.05213633  0.28852679  1.0
  Ni  Ni208  1  0.09744833  0.38546967  0.28852679  1.0
  Ni  Ni209  1  0.09744833  0.71880300  0.28852679  1.0
  Ni  Ni210  1  0.43078167  0.05213633  0.28852679  1.0
  Ni  Ni211  1  0.43078167  0.38546967  0.28852679  1.0
  Ni  Ni212  1  0.43078167  0.71880300  0.28852679  1.0
  Ni  Ni213  1  0.76411500  0.05213633  0.28852679  1.0
  Ni  Ni214  1  0.76411500  0.38546967  0.28852679  1.0
  Ni  Ni215  1  0.76411500  0.71880300  0.28852679  1.0
  Ni  Ni216  1  0.01312500  0.28119700  0.32466536  1.0
  Ni  Ni217  1  0.01312500  0.61453033  0.32466536  1.0
  Ni  Ni218  1  0.01312500  0.94786367  0.32466536  1.0
  Ni  Ni219  1  0.34645833  0.28119700  0.32466536  1.0
  Ni  Ni220  1  0.34645833  0.61453033  0.32466536  1.0
  Ni  Ni221  1  0.34645833  0.94786367  0.32466536  1.0
  Ni  Ni222  1  0.67979167  0.28119700  0.32466536  1.0
  Ni  Ni223  1  0.67979167  0.61453033  0.32466536  1.0
  Ni  Ni224  1  0.67979167  0.94786367  0.32466536  1.0
  Ni  Ni225  1  0.16666667  0.16666667  0.42575893  1.0
  Ni  Ni226  1  0.16666667  0.50000000  0.42575893  1.0
  Ni  Ni227  1  0.16666667  0.83333333  0.42575893  1.0
  Ni  Ni228  1  0.50000000  0.16666667  0.42575893  1.0
  Ni  Ni229  1  0.50000000  0.50000000  0.42575893  1.0
  Ni  Ni230  1  0.50000000  0.83333333  0.42575893  1.0
  Ni  Ni231  1  0.83333333  0.16666667  0.42575893  1.0
  Ni  Ni232  1  0.83333333  0.50000000  0.42575893  1.0
  Ni  Ni233  1  0.83333333  0.83333333  0.42575893  1.0
  Ni  Ni234  1  0.00000000  0.16666667  0.35433036  1.0
  Ni  Ni235  1  0.00000000  0.50000000  0.35433036  1.0
  Ni  Ni236  1  0.00000000  0.83333333  0.35433036  1.0
  Ni  Ni237  1  0.33333333  0.16666667  0.35433036  1.0
  Ni  Ni238  1  0.33333333  0.50000000  0.35433036  1.0
  Ni  Ni239  1  0.33333333  0.83333333  0.35433036  1.0
  Ni  Ni240  1  0.66666667  0.16666667  0.35433036  1.0
  Ni  Ni241  1  0.66666667  0.50000000  0.35433036  1.0
  Ni  Ni242  1  0.66666667  0.83333333  0.35433036  1.0
