# generated using pymatgen
data_Zr2Ni
_symmetry_space_group_name_H-M   'P 1'
_cell_length_a   19.51949398
_cell_length_b   27.41025068
_cell_length_c   28.07366791
_cell_angle_alpha   90.35407242
_cell_angle_beta   89.99999999
_cell_angle_gamma   110.85854217
_symmetry_Int_Tables_number   1
_chemical_formula_structural   Zr2Ni
_chemical_formula_sum   'Zr216 Ni108'
_cell_volume   14035.66633092
_cell_formula_units_Z   108
loop_
 _symmetry_equiv_pos_site_id
 _symmetry_equiv_pos_as_xyz
  1  'x, y, z'
loop_
 _atom_site_type_symbol
 _atom_site_label
 _atom_site_symmetry_multiplicity
 _atom_site_fract_x
 _atom_site_fract_y
 _atom_site_fract_z
 _atom_site_occupancy
  Ni  Ni0  1  0.32091333  0.28856167  0.99068500  1.0
  Ni  Ni1  1  0.32091333  0.62189500  0.99068500  1.0
  Ni  Ni2  1  0.32091333  0.95522833  0.99068500  1.0
  Ni  Ni3  1  0.65424667  0.28856167  0.99068500  1.0
  Ni  Ni4  1  0.65424667  0.62189500  0.99068500  1.0
  Ni  Ni5  1  0.65424667  0.95522833  0.99068500  1.0
  Ni  Ni6  1  0.98758000  0.28856167  0.99068500  1.0
  Ni  Ni7  1  0.98758000  0.62189500  0.99068500  1.0
  Ni  Ni8  1  0.98758000  0.95522833  0.99068500  1.0
  Ni  Ni9  1  0.22567524  0.09808548  0.91925643  1.0
  Ni  Ni10  1  0.22567524  0.43141881  0.91925643  1.0
  Ni  Ni11  1  0.22567524  0.76475214  0.91925643  1.0
  Ni  Ni12  1  0.55900857  0.09808548  0.91925643  1.0
  Ni  Ni13  1  0.55900857  0.43141881  0.91925643  1.0
  Ni  Ni14  1  0.55900857  0.76475214  0.91925643  1.0
  Ni  Ni15  1  0.89234190  0.09808548  0.91925643  1.0
  Ni  Ni16  1  0.89234190  0.43141881  0.91925643  1.0
  Ni  Ni17  1  0.89234190  0.76475214  0.91925643  1.0
  Ni  Ni18  1  0.27329429  0.19332357  0.95497071  1.0
  Ni  Ni19  1  0.27329429  0.52665690  0.95497071  1.0
  Ni  Ni20  1  0.27329429  0.85999024  0.95497071  1.0
  Ni  Ni21  1  0.60662762  0.19332357  0.95497071  1.0
  Ni  Ni22  1  0.60662762  0.52665690  0.95497071  1.0
  Ni  Ni23  1  0.60662762  0.85999024  0.95497071  1.0
  Ni  Ni24  1  0.93996095  0.19332357  0.95497071  1.0
  Ni  Ni25  1  0.93996095  0.52665690  0.95497071  1.0
  Ni  Ni26  1  0.93996095  0.85999024  0.95497071  1.0
  Ni  Ni27  1  0.17805619  0.00284738  0.88354214  1.0
  Ni  Ni28  1  0.17805619  0.33618071  0.88354214  1.0
  Ni  Ni29  1  0.17805619  0.66951405  0.88354214  1.0
  Ni  Ni30  1  0.51138952  0.00284738  0.88354214  1.0
  Ni  Ni31  1  0.51138952  0.33618071  0.88354214  1.0
  Ni  Ni32  1  0.51138952  0.66951405  0.88354214  1.0
  Ni  Ni33  1  0.84472286  0.00284738  0.88354214  1.0
  Ni  Ni34  1  0.84472286  0.33618071  0.88354214  1.0
  Ni  Ni35  1  0.84472286  0.66951405  0.88354214  1.0
  Ni  Ni36  1  0.13043714  0.24094262  0.84782786  1.0
  Ni  Ni37  1  0.13043714  0.57427595  0.84782786  1.0
  Ni  Ni38  1  0.13043714  0.90760929  0.84782786  1.0
  Ni  Ni39  1  0.46377048  0.24094262  0.84782786  1.0
  Ni  Ni40  1  0.46377048  0.57427595  0.84782786  1.0
  Ni  Ni41  1  0.46377048  0.90760929  0.84782786  1.0
  Ni  Ni42  1  0.79710381  0.24094262  0.84782786  1.0
  Ni  Ni43  1  0.79710381  0.57427595  0.84782786  1.0
  Ni  Ni44  1  0.79710381  0.90760929  0.84782786  1.0
  Ni  Ni45  1  0.03519905  0.05046643  0.77639929  1.0
  Ni  Ni46  1  0.03519905  0.38379976  0.77639929  1.0
  Ni  Ni47  1  0.03519905  0.71713310  0.77639929  1.0
  Ni  Ni48  1  0.36853238  0.05046643  0.77639929  1.0
  Ni  Ni49  1  0.36853238  0.38379976  0.77639929  1.0
  Ni  Ni50  1  0.36853238  0.71713310  0.77639929  1.0
  Ni  Ni51  1  0.70186571  0.05046643  0.77639929  1.0
  Ni  Ni52  1  0.70186571  0.38379976  0.77639929  1.0
  Ni  Ni53  1  0.70186571  0.71713310  0.77639929  1.0
  Ni  Ni54  1  0.08281810  0.14570452  0.81211357  1.0
  Ni  Ni55  1  0.08281810  0.47903786  0.81211357  1.0
  Ni  Ni56  1  0.08281810  0.81237119  0.81211357  1.0
  Ni  Ni57  1  0.41615143  0.14570452  0.81211357  1.0
  Ni  Ni58  1  0.41615143  0.47903786  0.81211357  1.0
  Ni  Ni59  1  0.41615143  0.81237119  0.81211357  1.0
  Ni  Ni60  1  0.74948476  0.14570452  0.81211357  1.0
  Ni  Ni61  1  0.74948476  0.47903786  0.81211357  1.0
  Ni  Ni62  1  0.74948476  0.81237119  0.81211357  1.0
  Ni  Ni63  1  0.32091333  0.28856167  0.74068500  1.0
  Ni  Ni64  1  0.32091333  0.62189500  0.74068500  1.0
  Ni  Ni65  1  0.32091333  0.95522833  0.74068500  1.0
  Ni  Ni66  1  0.65424667  0.28856167  0.74068500  1.0
  Ni  Ni67  1  0.65424667  0.62189500  0.74068500  1.0
  Ni  Ni68  1  0.65424667  0.95522833  0.74068500  1.0
  Ni  Ni69  1  0.98758000  0.28856167  0.74068500  1.0
  Ni  Ni70  1  0.98758000  0.62189500  0.74068500  1.0
  Ni  Ni71  1  0.98758000  0.95522833  0.74068500  1.0
  Ni  Ni72  1  0.27329429  0.19332357  0.70497071  1.0
  Ni  Ni73  1  0.27329429  0.52665690  0.70497071  1.0
  Ni  Ni74  1  0.27329429  0.85999024  0.70497071  1.0
  Ni  Ni75  1  0.60662762  0.19332357  0.70497071  1.0
  Ni  Ni76  1  0.60662762  0.52665690  0.70497071  1.0
  Ni  Ni77  1  0.60662762  0.85999024  0.70497071  1.0
  Ni  Ni78  1  0.93996095  0.19332357  0.70497071  1.0
  Ni  Ni79  1  0.93996095  0.52665690  0.70497071  1.0
  Ni  Ni80  1  0.93996095  0.85999024  0.70497071  1.0
  Ni  Ni81  1  0.17805619  0.00284738  0.63354214  1.0
  Ni  Ni82  1  0.17805619  0.33618071  0.63354214  1.0
  Ni  Ni83  1  0.17805619  0.66951405  0.63354214  1.0
  Ni  Ni84  1  0.51138952  0.00284738  0.63354214  1.0
  Ni  Ni85  1  0.51138952  0.33618071  0.63354214  1.0
  Ni  Ni86  1  0.51138952  0.66951405  0.63354214  1.0
  Ni  Ni87  1  0.84472286  0.00284738  0.63354214  1.0
  Ni  Ni88  1  0.84472286  0.33618071  0.63354214  1.0
  Ni  Ni89  1  0.84472286  0.66951405  0.63354214  1.0
  Ni  Ni90  1  0.22567524  0.09808548  0.66925643  1.0
  Ni  Ni91  1  0.22567524  0.43141881  0.66925643  1.0
  Ni  Ni92  1  0.22567524  0.76475214  0.66925643  1.0
  Ni  Ni93  1  0.55900857  0.09808548  0.66925643  1.0
  Ni  Ni94  1  0.55900857  0.43141881  0.66925643  1.0
  Ni  Ni95  1  0.55900857  0.76475214  0.66925643  1.0
  Ni  Ni96  1  0.89234190  0.09808548  0.66925643  1.0
  Ni  Ni97  1  0.89234190  0.43141881  0.66925643  1.0
  Ni  Ni98  1  0.89234190  0.76475214  0.66925643  1.0
  Ni  Ni99  1  0.13043714  0.24094262  0.59782786  1.0
  Ni  Ni100  1  0.13043714  0.57427595  0.59782786  1.0
  Ni  Ni101  1  0.13043714  0.90760929  0.59782786  1.0
  Ni  Ni102  1  0.46377048  0.24094262  0.59782786  1.0
  Ni  Ni103  1  0.46377048  0.57427595  0.59782786  1.0
  Ni  Ni104  1  0.46377048  0.90760929  0.59782786  1.0
  Ni  Ni105  1  0.79710381  0.24094262  0.59782786  1.0
  Ni  Ni106  1  0.79710381  0.57427595  0.59782786  1.0
  Ni  Ni107  1  0.79710381  0.90760929  0.59782786  1.0
  Zr  Zr108  1  0.02070000  0.13017500  0.97205500  1.0
  Zr  Zr109  1  0.02070000  0.46350833  0.97205500  1.0
  Zr  Zr110  1  0.02070000  0.79684167  0.97205500  1.0
  Zr  Zr111  1  0.35403333  0.13017500  0.97205500  1.0
  Zr  Zr112  1  0.35403333  0.46350833  0.97205500  1.0
  Zr  Zr113  1  0.35403333  0.79684167  0.97205500  1.0
  Zr  Zr114  1  0.68736667  0.13017500  0.97205500  1.0
  Zr  Zr115  1  0.68736667  0.46350833  0.97205500  1.0
  Zr  Zr116  1  0.68736667  0.79684167  0.97205500  1.0
  Zr  Zr117  1  0.25879524  0.27303214  0.90062643  1.0
  Zr  Zr118  1  0.25879524  0.60636548  0.90062643  1.0
  Zr  Zr119  1  0.25879524  0.93969881  0.90062643  1.0
  Zr  Zr120  1  0.59212857  0.27303214  0.90062643  1.0
  Zr  Zr121  1  0.59212857  0.60636548  0.90062643  1.0
  Zr  Zr122  1  0.59212857  0.93969881  0.90062643  1.0
  Zr  Zr123  1  0.92546190  0.27303214  0.90062643  1.0
  Zr  Zr124  1  0.92546190  0.60636548  0.90062643  1.0
  Zr  Zr125  1  0.92546190  0.93969881  0.90062643  1.0
  Zr  Zr126  1  0.14493619  0.16123405  0.90217214  1.0
  Zr  Zr127  1  0.14493619  0.49456738  0.90217214  1.0
  Zr  Zr128  1  0.14493619  0.82790071  0.90217214  1.0
  Zr  Zr129  1  0.47826952  0.16123405  0.90217214  1.0
  Zr  Zr130  1  0.47826952  0.49456738  0.90217214  1.0
  Zr  Zr131  1  0.47826952  0.82790071  0.90217214  1.0
  Zr  Zr132  1  0.81160286  0.16123405  0.90217214  1.0
  Zr  Zr133  1  0.81160286  0.49456738  0.90217214  1.0
  Zr  Zr134  1  0.81160286  0.82790071  0.90217214  1.0
  Zr  Zr135  1  0.24017429  0.01837690  0.97360071  1.0
  Zr  Zr136  1  0.24017429  0.35171024  0.97360071  1.0
  Zr  Zr137  1  0.24017429  0.68504357  0.97360071  1.0
  Zr  Zr138  1  0.57350762  0.01837690  0.97360071  1.0
  Zr  Zr139  1  0.57350762  0.35171024  0.97360071  1.0
  Zr  Zr140  1  0.57350762  0.68504357  0.97360071  1.0
  Zr  Zr141  1  0.90684095  0.01837690  0.97360071  1.0
  Zr  Zr142  1  0.90684095  0.35171024  0.97360071  1.0
  Zr  Zr143  1  0.90684095  0.68504357  0.97360071  1.0
  Zr  Zr144  1  0.31988286  0.17779405  0.86491214  1.0
  Zr  Zr145  1  0.31988286  0.51112738  0.86491214  1.0
  Zr  Zr146  1  0.31988286  0.84446071  0.86491214  1.0
  Zr  Zr147  1  0.65321619  0.17779405  0.86491214  1.0
  Zr  Zr148  1  0.65321619  0.51112738  0.86491214  1.0
  Zr  Zr149  1  0.65321619  0.84446071  0.86491214  1.0
  Zr  Zr150  1  0.98654952  0.17779405  0.86491214  1.0
  Zr  Zr151  1  0.98654952  0.51112738  0.86491214  1.0
  Zr  Zr152  1  0.98654952  0.84446071  0.86491214  1.0
  Zr  Zr153  1  0.08178762  0.03493690  0.93634071  1.0
  Zr  Zr154  1  0.08178762  0.36827024  0.93634071  1.0
  Zr  Zr155  1  0.08178762  0.70160357  0.93634071  1.0
  Zr  Zr156  1  0.41512095  0.03493690  0.93634071  1.0
  Zr  Zr157  1  0.41512095  0.36827024  0.93634071  1.0
  Zr  Zr158  1  0.41512095  0.70160357  0.93634071  1.0
  Zr  Zr159  1  0.74845429  0.03493690  0.93634071  1.0
  Zr  Zr160  1  0.74845429  0.36827024  0.93634071  1.0
  Zr  Zr161  1  0.74845429  0.70160357  0.93634071  1.0
  Zr  Zr162  1  0.32194381  0.06599595  0.86645786  1.0
  Zr  Zr163  1  0.32194381  0.39932929  0.86645786  1.0
  Zr  Zr164  1  0.32194381  0.73266262  0.86645786  1.0
  Zr  Zr165  1  0.65527714  0.06599595  0.86645786  1.0
  Zr  Zr166  1  0.65527714  0.39932929  0.86645786  1.0
  Zr  Zr167  1  0.65527714  0.73266262  0.86645786  1.0
  Zr  Zr168  1  0.98861048  0.06599595  0.86645786  1.0
  Zr  Zr169  1  0.98861048  0.39932929  0.86645786  1.0
  Zr  Zr170  1  0.98861048  0.73266262  0.86645786  1.0
  Zr  Zr171  1  0.08384857  0.25647214  0.93788643  1.0
  Zr  Zr172  1  0.08384857  0.58980548  0.93788643  1.0
  Zr  Zr173  1  0.08384857  0.92313881  0.93788643  1.0
  Zr  Zr174  1  0.41718190  0.25647214  0.93788643  1.0
  Zr  Zr175  1  0.41718190  0.58980548  0.93788643  1.0
  Zr  Zr176  1  0.41718190  0.92313881  0.93788643  1.0
  Zr  Zr177  1  0.75051524  0.25647214  0.93788643  1.0
  Zr  Zr178  1  0.75051524  0.58980548  0.93788643  1.0
  Zr  Zr179  1  0.75051524  0.92313881  0.93788643  1.0
  Zr  Zr180  1  0.16355714  0.08255595  0.82919786  1.0
  Zr  Zr181  1  0.16355714  0.41588929  0.82919786  1.0
  Zr  Zr182  1  0.16355714  0.74922262  0.82919786  1.0
  Zr  Zr183  1  0.49689048  0.08255595  0.82919786  1.0
  Zr  Zr184  1  0.49689048  0.41588929  0.82919786  1.0
  Zr  Zr185  1  0.49689048  0.74922262  0.82919786  1.0
  Zr  Zr186  1  0.83022381  0.08255595  0.82919786  1.0
  Zr  Zr187  1  0.83022381  0.41588929  0.82919786  1.0
  Zr  Zr188  1  0.83022381  0.74922262  0.82919786  1.0
  Zr  Zr189  1  0.06831905  0.22541310  0.75776929  1.0
  Zr  Zr190  1  0.06831905  0.55874643  0.75776929  1.0
  Zr  Zr191  1  0.06831905  0.89207976  0.75776929  1.0
  Zr  Zr192  1  0.40165238  0.22541310  0.75776929  1.0
  Zr  Zr193  1  0.40165238  0.55874643  0.75776929  1.0
  Zr  Zr194  1  0.40165238  0.89207976  0.75776929  1.0
  Zr  Zr195  1  0.73498571  0.22541310  0.75776929  1.0
  Zr  Zr196  1  0.73498571  0.55874643  0.75776929  1.0
  Zr  Zr197  1  0.73498571  0.89207976  0.75776929  1.0
  Zr  Zr198  1  0.28779333  0.11361500  0.75931500  1.0
  Zr  Zr199  1  0.28779333  0.44694833  0.75931500  1.0
  Zr  Zr200  1  0.28779333  0.78028167  0.75931500  1.0
  Zr  Zr201  1  0.62112667  0.11361500  0.75931500  1.0
  Zr  Zr202  1  0.62112667  0.44694833  0.75931500  1.0
  Zr  Zr203  1  0.62112667  0.78028167  0.75931500  1.0
  Zr  Zr204  1  0.95446000  0.11361500  0.75931500  1.0
  Zr  Zr205  1  0.95446000  0.44694833  0.75931500  1.0
  Zr  Zr206  1  0.95446000  0.78028167  0.75931500  1.0
  Zr  Zr207  1  0.04969810  0.30409119  0.83074357  1.0
  Zr  Zr208  1  0.04969810  0.63742452  0.83074357  1.0
  Zr  Zr209  1  0.04969810  0.97075786  0.83074357  1.0
  Zr  Zr210  1  0.38303143  0.30409119  0.83074357  1.0
  Zr  Zr211  1  0.38303143  0.63742452  0.83074357  1.0
  Zr  Zr212  1  0.38303143  0.97075786  0.83074357  1.0
  Zr  Zr213  1  0.71636476  0.30409119  0.83074357  1.0
  Zr  Zr214  1  0.71636476  0.63742452  0.83074357  1.0
  Zr  Zr215  1  0.71636476  0.97075786  0.83074357  1.0
  Zr  Zr216  1  0.12940667  0.13017500  0.72205500  1.0
  Zr  Zr217  1  0.12940667  0.46350833  0.72205500  1.0
  Zr  Zr218  1  0.12940667  0.79684167  0.72205500  1.0
  Zr  Zr219  1  0.46274000  0.13017500  0.72205500  1.0
  Zr  Zr220  1  0.46274000  0.46350833  0.72205500  1.0
  Zr  Zr221  1  0.46274000  0.79684167  0.72205500  1.0
  Zr  Zr222  1  0.79607333  0.13017500  0.72205500  1.0
  Zr  Zr223  1  0.79607333  0.46350833  0.72205500  1.0
  Zr  Zr224  1  0.79607333  0.79684167  0.72205500  1.0
  Zr  Zr225  1  0.22464476  0.32065119  0.79348357  1.0
  Zr  Zr226  1  0.22464476  0.65398452  0.79348357  1.0
  Zr  Zr227  1  0.22464476  0.98731786  0.79348357  1.0
  Zr  Zr228  1  0.55797810  0.32065119  0.79348357  1.0
  Zr  Zr229  1  0.55797810  0.65398452  0.79348357  1.0
  Zr  Zr230  1  0.55797810  0.98731786  0.79348357  1.0
  Zr  Zr231  1  0.89131143  0.32065119  0.79348357  1.0
  Zr  Zr232  1  0.89131143  0.65398452  0.79348357  1.0
  Zr  Zr233  1  0.89131143  0.98731786  0.79348357  1.0
  Zr  Zr234  1  0.13146762  0.01837690  0.72360071  1.0
  Zr  Zr235  1  0.13146762  0.35171024  0.72360071  1.0
  Zr  Zr236  1  0.13146762  0.68504357  0.72360071  1.0
  Zr  Zr237  1  0.46480095  0.01837690  0.72360071  1.0
  Zr  Zr238  1  0.46480095  0.35171024  0.72360071  1.0
  Zr  Zr239  1  0.46480095  0.68504357  0.72360071  1.0
  Zr  Zr240  1  0.79813429  0.01837690  0.72360071  1.0
  Zr  Zr241  1  0.79813429  0.35171024  0.72360071  1.0
  Zr  Zr242  1  0.79813429  0.68504357  0.72360071  1.0
  Zr  Zr243  1  0.22670571  0.20885310  0.79502929  1.0
  Zr  Zr244  1  0.22670571  0.54218643  0.79502929  1.0
  Zr  Zr245  1  0.22670571  0.87551976  0.79502929  1.0
  Zr  Zr246  1  0.56003905  0.20885310  0.79502929  1.0
  Zr  Zr247  1  0.56003905  0.54218643  0.79502929  1.0
  Zr  Zr248  1  0.56003905  0.87551976  0.79502929  1.0
  Zr  Zr249  1  0.89337238  0.20885310  0.79502929  1.0
  Zr  Zr250  1  0.89337238  0.54218643  0.79502929  1.0
  Zr  Zr251  1  0.89337238  0.87551976  0.79502929  1.0
  Zr  Zr252  1  0.30641429  0.03493690  0.68634071  1.0
  Zr  Zr253  1  0.30641429  0.36827024  0.68634071  1.0
  Zr  Zr254  1  0.30641429  0.70160357  0.68634071  1.0
  Zr  Zr255  1  0.63974762  0.03493690  0.68634071  1.0
  Zr  Zr256  1  0.63974762  0.36827024  0.68634071  1.0
  Zr  Zr257  1  0.63974762  0.70160357  0.68634071  1.0
  Zr  Zr258  1  0.97308095  0.03493690  0.68634071  1.0
  Zr  Zr259  1  0.97308095  0.36827024  0.68634071  1.0
  Zr  Zr260  1  0.97308095  0.70160357  0.68634071  1.0
  Zr  Zr261  1  0.21117619  0.17779405  0.61491214  1.0
  Zr  Zr262  1  0.21117619  0.51112738  0.61491214  1.0
  Zr  Zr263  1  0.21117619  0.84446071  0.61491214  1.0
  Zr  Zr264  1  0.54450952  0.17779405  0.61491214  1.0
  Zr  Zr265  1  0.54450952  0.51112738  0.61491214  1.0
  Zr  Zr266  1  0.54450952  0.84446071  0.61491214  1.0
  Zr  Zr267  1  0.87784286  0.17779405  0.61491214  1.0
  Zr  Zr268  1  0.87784286  0.51112738  0.61491214  1.0
  Zr  Zr269  1  0.87784286  0.84446071  0.61491214  1.0
  Zr  Zr270  1  0.09731714  0.06599595  0.61645786  1.0
  Zr  Zr271  1  0.09731714  0.39932929  0.61645786  1.0
  Zr  Zr272  1  0.09731714  0.73266262  0.61645786  1.0
  Zr  Zr273  1  0.43065048  0.06599595  0.61645786  1.0
  Zr  Zr274  1  0.43065048  0.39932929  0.61645786  1.0
  Zr  Zr275  1  0.43065048  0.73266262  0.61645786  1.0
  Zr  Zr276  1  0.76398381  0.06599595  0.61645786  1.0
  Zr  Zr277  1  0.76398381  0.39932929  0.61645786  1.0
  Zr  Zr278  1  0.76398381  0.73266262  0.61645786  1.0
  Zr  Zr279  1  0.19255524  0.25647214  0.68788643  1.0
  Zr  Zr280  1  0.19255524  0.58980548  0.68788643  1.0
  Zr  Zr281  1  0.19255524  0.92313881  0.68788643  1.0
  Zr  Zr282  1  0.52588857  0.25647214  0.68788643  1.0
  Zr  Zr283  1  0.52588857  0.58980548  0.68788643  1.0
  Zr  Zr284  1  0.52588857  0.92313881  0.68788643  1.0
  Zr  Zr285  1  0.85922190  0.25647214  0.68788643  1.0
  Zr  Zr286  1  0.85922190  0.58980548  0.68788643  1.0
  Zr  Zr287  1  0.85922190  0.92313881  0.68788643  1.0
  Zr  Zr288  1  0.27226381  0.08255595  0.57919786  1.0
  Zr  Zr289  1  0.27226381  0.41588929  0.57919786  1.0
  Zr  Zr290  1  0.27226381  0.74922262  0.57919786  1.0
  Zr  Zr291  1  0.60559714  0.08255595  0.57919786  1.0
  Zr  Zr292  1  0.60559714  0.41588929  0.57919786  1.0
  Zr  Zr293  1  0.60559714  0.74922262  0.57919786  1.0
  Zr  Zr294  1  0.93893048  0.08255595  0.57919786  1.0
  Zr  Zr295  1  0.93893048  0.41588929  0.57919786  1.0
  Zr  Zr296  1  0.93893048  0.74922262  0.57919786  1.0
  Zr  Zr297  1  0.03416857  0.27303214  0.65062643  1.0
  Zr  Zr298  1  0.03416857  0.60636548  0.65062643  1.0
  Zr  Zr299  1  0.03416857  0.93969881  0.65062643  1.0
  Zr  Zr300  1  0.36750190  0.27303214  0.65062643  1.0
  Zr  Zr301  1  0.36750190  0.60636548  0.65062643  1.0
  Zr  Zr302  1  0.36750190  0.93969881  0.65062643  1.0
  Zr  Zr303  1  0.70083524  0.27303214  0.65062643  1.0
  Zr  Zr304  1  0.70083524  0.60636548  0.65062643  1.0
  Zr  Zr305  1  0.70083524  0.93969881  0.65062643  1.0
  Zr  Zr306  1  0.27432476  0.30409119  0.58074357  1.0
  Zr  Zr307  1  0.27432476  0.63742452  0.58074357  1.0
  Zr  Zr308  1  0.27432476  0.97075786  0.58074357  1.0
  Zr  Zr309  1  0.60765810  0.30409119  0.58074357  1.0
  Zr  Zr310  1  0.60765810  0.63742452  0.58074357  1.0
  Zr  Zr311  1  0.60765810  0.97075786  0.58074357  1.0
  Zr  Zr312  1  0.94099143  0.30409119  0.58074357  1.0
  Zr  Zr313  1  0.94099143  0.63742452  0.58074357  1.0
  Zr  Zr314  1  0.94099143  0.97075786  0.58074357  1.0
  Zr  Zr315  1  0.03622952  0.16123405  0.65217214  1.0
  Zr  Zr316  1  0.03622952  0.49456738  0.65217214  1.0
  Zr  Zr317  1  0.03622952  0.82790071  0.65217214  1.0
  Zr  Zr318  1  0.36956286  0.16123405  0.65217214  1.0
  Zr  Zr319  1  0.36956286  0.49456738  0.65217214  1.0
  Zr  Zr320  1  0.36956286  0.82790071  0.65217214  1.0
  Zr  Zr321  1  0.70289619  0.16123405  0.65217214  1.0
  Zr  Zr322  1  0.70289619  0.49456738  0.65217214  1.0
  Zr  Zr323  1  0.70289619  0.82790071  0.65217214  1.0
