# generated using pymatgen
data_Zr2Ni
_symmetry_space_group_name_H-M   'P 1'
_cell_length_a   19.51949398
_cell_length_b   31.85654658
_cell_length_c   27.10536091
_cell_angle_alpha   91.14166721
_cell_angle_beta   89.99999999
_cell_angle_gamma   107.84033485
_symmetry_Int_Tables_number   1
_chemical_formula_structural   Zr2Ni
_chemical_formula_sum   'Zr216 Ni108'
_cell_volume   16040.76152105
_cell_formula_units_Z   108
loop_
 _symmetry_equiv_pos_site_id
 _symmetry_equiv_pos_as_xyz
  1  'x, y, z'
loop_
 _atom_site_type_symbol
 _atom_site_label
 _atom_site_symmetry_multiplicity
 _atom_site_fract_x
 _atom_site_fract_y
 _atom_site_fract_z
 _atom_site_occupancy
  Ni  Ni0  1  0.30661146  0.31431125  0.03396687  1.0
  Ni  Ni1  1  0.30661146  0.64764458  0.03396687  1.0
  Ni  Ni2  1  0.30661146  0.98097792  0.03396687  1.0
  Ni  Ni3  1  0.63994479  0.31431125  0.03396687  1.0
  Ni  Ni4  1  0.63994479  0.64764458  0.03396687  1.0
  Ni  Ni5  1  0.63994479  0.98097792  0.03396687  1.0
  Ni  Ni6  1  0.97327812  0.31431125  0.03396687  1.0
  Ni  Ni7  1  0.97327812  0.64764458  0.03396687  1.0
  Ni  Ni8  1  0.97327812  0.98097792  0.03396687  1.0
  Ni  Ni9  1  0.07744479  0.18931125  0.09646688  1.0
  Ni  Ni10  1  0.07744479  0.52264458  0.09646688  1.0
  Ni  Ni11  1  0.07744479  0.85597792  0.09646688  1.0
  Ni  Ni12  1  0.41077812  0.18931125  0.09646688  1.0
  Ni  Ni13  1  0.41077812  0.52264458  0.09646688  1.0
  Ni  Ni14  1  0.41077813  0.85597792  0.09646688  1.0
  Ni  Ni15  1  0.74411146  0.18931125  0.09646688  1.0
  Ni  Ni16  1  0.74411146  0.52264458  0.09646688  1.0
  Ni  Ni17  1  0.74411146  0.85597792  0.09646688  1.0
  Ni  Ni18  1  0.08786146  0.21014458  0.00271688  1.0
  Ni  Ni19  1  0.08786146  0.54347792  0.00271688  1.0
  Ni  Ni20  1  0.08786146  0.87681125  0.00271688  1.0
  Ni  Ni21  1  0.42119479  0.21014458  0.00271688  1.0
  Ni  Ni22  1  0.42119479  0.54347792  0.00271688  1.0
  Ni  Ni23  1  0.42119479  0.87681125  0.00271688  1.0
  Ni  Ni24  1  0.75452813  0.21014458  0.00271688  1.0
  Ni  Ni25  1  0.75452813  0.54347792  0.00271688  1.0
  Ni  Ni26  1  0.75452812  0.87681125  0.00271688  1.0
  Ni  Ni27  1  0.19202813  0.08514458  0.06521687  1.0
  Ni  Ni28  1  0.19202813  0.41847792  0.06521688  1.0
  Ni  Ni29  1  0.19202813  0.75181125  0.06521688  1.0
  Ni  Ni30  1  0.52536146  0.08514458  0.06521688  1.0
  Ni  Ni31  1  0.52536146  0.41847792  0.06521688  1.0
  Ni  Ni32  1  0.52536146  0.75181125  0.06521688  1.0
  Ni  Ni33  1  0.85869479  0.08514458  0.06521687  1.0
  Ni  Ni34  1  0.85869479  0.41847792  0.06521688  1.0
  Ni  Ni35  1  0.85869479  0.75181125  0.06521688  1.0
  Ni  Ni36  1  0.18161146  0.06431125  0.15896688  1.0
  Ni  Ni37  1  0.18161146  0.39764458  0.15896688  1.0
  Ni  Ni38  1  0.18161146  0.73097792  0.15896688  1.0
  Ni  Ni39  1  0.51494479  0.06431125  0.15896688  1.0
  Ni  Ni40  1  0.51494479  0.39764458  0.15896688  1.0
  Ni  Ni41  1  0.51494479  0.73097792  0.15896688  1.0
  Ni  Ni42  1  0.84827812  0.06431125  0.15896688  1.0
  Ni  Ni43  1  0.84827812  0.39764458  0.15896688  1.0
  Ni  Ni44  1  0.84827812  0.73097792  0.15896688  1.0
  Ni  Ni45  1  0.28577813  0.27264458  0.22146688  1.0
  Ni  Ni46  1  0.28577813  0.60597792  0.22146688  1.0
  Ni  Ni47  1  0.28577813  0.93931125  0.22146688  1.0
  Ni  Ni48  1  0.61911146  0.27264458  0.22146688  1.0
  Ni  Ni49  1  0.61911146  0.60597792  0.22146688  1.0
  Ni  Ni50  1  0.61911146  0.93931125  0.22146688  1.0
  Ni  Ni51  1  0.95244479  0.27264458  0.22146688  1.0
  Ni  Ni52  1  0.95244479  0.60597792  0.22146688  1.0
  Ni  Ni53  1  0.95244479  0.93931125  0.22146688  1.0
  Ni  Ni54  1  0.29619479  0.29347792  0.12771688  1.0
  Ni  Ni55  1  0.29619479  0.62681125  0.12771688  1.0
  Ni  Ni56  1  0.29619479  0.96014458  0.12771688  1.0
  Ni  Ni57  1  0.62952812  0.29347792  0.12771688  1.0
  Ni  Ni58  1  0.62952812  0.62681125  0.12771688  1.0
  Ni  Ni59  1  0.62952812  0.96014458  0.12771688  1.0
  Ni  Ni60  1  0.96286146  0.29347792  0.12771688  1.0
  Ni  Ni61  1  0.96286146  0.62681125  0.12771688  1.0
  Ni  Ni62  1  0.96286146  0.96014458  0.12771688  1.0
  Ni  Ni63  1  0.06702813  0.16847792  0.19021687  1.0
  Ni  Ni64  1  0.06702813  0.50181125  0.19021688  1.0
  Ni  Ni65  1  0.06702813  0.83514458  0.19021687  1.0
  Ni  Ni66  1  0.40036146  0.16847792  0.19021687  1.0
  Ni  Ni67  1  0.40036146  0.50181125  0.19021688  1.0
  Ni  Ni68  1  0.40036146  0.83514458  0.19021688  1.0
  Ni  Ni69  1  0.73369479  0.16847792  0.19021688  1.0
  Ni  Ni70  1  0.73369479  0.50181125  0.19021688  1.0
  Ni  Ni71  1  0.73369479  0.83514458  0.19021687  1.0
  Ni  Ni72  1  0.05661146  0.14764458  0.28396687  1.0
  Ni  Ni73  1  0.05661146  0.48097792  0.28396688  1.0
  Ni  Ni74  1  0.05661146  0.81431125  0.28396687  1.0
  Ni  Ni75  1  0.38994479  0.14764458  0.28396687  1.0
  Ni  Ni76  1  0.38994479  0.48097792  0.28396688  1.0
  Ni  Ni77  1  0.38994479  0.81431125  0.28396687  1.0
  Ni  Ni78  1  0.72327812  0.14764458  0.28396688  1.0
  Ni  Ni79  1  0.72327812  0.48097792  0.28396688  1.0
  Ni  Ni80  1  0.72327812  0.81431125  0.28396687  1.0
  Ni  Ni81  1  0.16077812  0.02264458  0.34646687  1.0
  Ni  Ni82  1  0.16077812  0.35597792  0.34646688  1.0
  Ni  Ni83  1  0.16077812  0.68931125  0.34646687  1.0
  Ni  Ni84  1  0.49411146  0.02264458  0.34646687  1.0
  Ni  Ni85  1  0.49411146  0.35597792  0.34646687  1.0
  Ni  Ni86  1  0.49411146  0.68931125  0.34646687  1.0
  Ni  Ni87  1  0.82744479  0.02264458  0.34646687  1.0
  Ni  Ni88  1  0.82744479  0.35597792  0.34646687  1.0
  Ni  Ni89  1  0.82744479  0.68931125  0.34646687  1.0
  Ni  Ni90  1  0.17119479  0.04347792  0.25271688  1.0
  Ni  Ni91  1  0.17119479  0.37681125  0.25271688  1.0
  Ni  Ni92  1  0.17119479  0.71014458  0.25271687  1.0
  Ni  Ni93  1  0.50452812  0.04347792  0.25271687  1.0
  Ni  Ni94  1  0.50452812  0.37681125  0.25271688  1.0
  Ni  Ni95  1  0.50452812  0.71014458  0.25271688  1.0
  Ni  Ni96  1  0.83786146  0.04347792  0.25271688  1.0
  Ni  Ni97  1  0.83786146  0.37681125  0.25271688  1.0
  Ni  Ni98  1  0.83786146  0.71014458  0.25271687  1.0
  Ni  Ni99  1  0.27536146  0.25181125  0.31521688  1.0
  Ni  Ni100  1  0.27536146  0.58514458  0.31521688  1.0
  Ni  Ni101  1  0.27536146  0.91847792  0.31521688  1.0
  Ni  Ni102  1  0.60869479  0.25181125  0.31521688  1.0
  Ni  Ni103  1  0.60869479  0.58514458  0.31521688  1.0
  Ni  Ni104  1  0.60869479  0.91847792  0.31521688  1.0
  Ni  Ni105  1  0.94202812  0.25181125  0.31521688  1.0
  Ni  Ni106  1  0.94202812  0.58514458  0.31521688  1.0
  Ni  Ni107  1  0.94202812  0.91847792  0.31521688  1.0
  Zr  Zr108  1  0.28668771  0.16575708  0.03940062  1.0
  Zr  Zr109  1  0.28668771  0.49909042  0.03940062  1.0
  Zr  Zr110  1  0.28668771  0.83242375  0.03940062  1.0
  Zr  Zr111  1  0.62002104  0.16575708  0.03940062  1.0
  Zr  Zr112  1  0.62002104  0.49909042  0.03940062  1.0
  Zr  Zr113  1  0.62002104  0.83242375  0.03940062  1.0
  Zr  Zr114  1  0.95335437  0.16575708  0.03940062  1.0
  Zr  Zr115  1  0.95335437  0.49909042  0.03940062  1.0
  Zr  Zr116  1  0.95335437  0.83242375  0.03940062  1.0
  Zr  Zr117  1  0.05752104  0.04075708  0.10190063  1.0
  Zr  Zr118  1  0.05752104  0.37409042  0.10190062  1.0
  Zr  Zr119  1  0.05752104  0.70742375  0.10190063  1.0
  Zr  Zr120  1  0.39085437  0.04075708  0.10190063  1.0
  Zr  Zr121  1  0.39085437  0.37409042  0.10190062  1.0
  Zr  Zr122  1  0.39085437  0.70742375  0.10190063  1.0
  Zr  Zr123  1  0.72418771  0.04075708  0.10190063  1.0
  Zr  Zr124  1  0.72418771  0.37409042  0.10190063  1.0
  Zr  Zr125  1  0.72418771  0.70742375  0.10190063  1.0
  Zr  Zr126  1  0.21195188  0.23369875  0.05978312  1.0
  Zr  Zr127  1  0.21195188  0.56703208  0.05978313  1.0
  Zr  Zr128  1  0.21195188  0.90036542  0.05978313  1.0
  Zr  Zr129  1  0.54528521  0.23369875  0.05978313  1.0
  Zr  Zr130  1  0.54528521  0.56703208  0.05978312  1.0
  Zr  Zr131  1  0.54528521  0.90036542  0.05978312  1.0
  Zr  Zr132  1  0.87861854  0.23369875  0.05978313  1.0
  Zr  Zr133  1  0.87861854  0.56703208  0.05978312  1.0
  Zr  Zr134  1  0.87861854  0.90036542  0.05978312  1.0
  Zr  Zr135  1  0.31611854  0.10869875  0.12228312  1.0
  Zr  Zr136  1  0.31611854  0.44203208  0.12228312  1.0
  Zr  Zr137  1  0.31611854  0.77536542  0.12228312  1.0
  Zr  Zr138  1  0.64945188  0.10869875  0.12228312  1.0
  Zr  Zr139  1  0.64945188  0.44203208  0.12228312  1.0
  Zr  Zr140  1  0.64945188  0.77536542  0.12228312  1.0
  Zr  Zr141  1  0.98278521  0.10869875  0.12228312  1.0
  Zr  Zr142  1  0.98278521  0.44203208  0.12228312  1.0
  Zr  Zr143  1  0.98278521  0.77536542  0.12228312  1.0
  Zr  Zr144  1  0.06339771  0.26992375  0.07065062  1.0
  Zr  Zr145  1  0.06339771  0.60325708  0.07065062  1.0
  Zr  Zr146  1  0.06339771  0.93659042  0.07065062  1.0
  Zr  Zr147  1  0.39673104  0.26992375  0.07065063  1.0
  Zr  Zr148  1  0.39673104  0.60325708  0.07065062  1.0
  Zr  Zr149  1  0.39673104  0.93659042  0.07065062  1.0
  Zr  Zr150  1  0.73006437  0.26992375  0.07065062  1.0
  Zr  Zr151  1  0.73006437  0.60325708  0.07065062  1.0
  Zr  Zr152  1  0.73006437  0.93659042  0.07065062  1.0
  Zr  Zr153  1  0.29256437  0.06159042  0.00815063  1.0
  Zr  Zr154  1  0.29256437  0.39492375  0.00815063  1.0
  Zr  Zr155  1  0.29256437  0.72825708  0.00815063  1.0
  Zr  Zr156  1  0.62589771  0.06159042  0.00815063  1.0
  Zr  Zr157  1  0.62589771  0.39492375  0.00815063  1.0
  Zr  Zr158  1  0.62589771  0.72825708  0.00815063  1.0
  Zr  Zr159  1  0.95923104  0.06159042  0.00815063  1.0
  Zr  Zr160  1  0.95923104  0.39492375  0.00815063  1.0
  Zr  Zr161  1  0.95923104  0.72825708  0.00815063  1.0
  Zr  Zr162  1  0.10190854  0.12953208  0.02853312  1.0
  Zr  Zr163  1  0.10190854  0.46286542  0.02853312  1.0
  Zr  Zr164  1  0.10190854  0.79619875  0.02853312  1.0
  Zr  Zr165  1  0.43524188  0.12953208  0.02853312  1.0
  Zr  Zr166  1  0.43524188  0.46286542  0.02853312  1.0
  Zr  Zr167  1  0.43524188  0.79619875  0.02853312  1.0
  Zr  Zr168  1  0.76857521  0.12953208  0.02853312  1.0
  Zr  Zr169  1  0.76857521  0.46286542  0.02853312  1.0
  Zr  Zr170  1  0.76857521  0.79619875  0.02853312  1.0
  Zr  Zr171  1  0.20607521  0.00453208  0.09103312  1.0
  Zr  Zr172  1  0.20607521  0.33786542  0.09103312  1.0
  Zr  Zr173  1  0.20607521  0.67119875  0.09103312  1.0
  Zr  Zr174  1  0.53940854  0.00453208  0.09103312  1.0
  Zr  Zr175  1  0.53940854  0.33786542  0.09103312  1.0
  Zr  Zr176  1  0.53940854  0.67119875  0.09103312  1.0
  Zr  Zr177  1  0.87274188  0.00453208  0.09103312  1.0
  Zr  Zr178  1  0.87274187  0.33786542  0.09103312  1.0
  Zr  Zr179  1  0.87274187  0.67119875  0.09103312  1.0
  Zr  Zr180  1  0.16168771  0.24909042  0.16440062  1.0
  Zr  Zr181  1  0.16168771  0.58242375  0.16440062  1.0
  Zr  Zr182  1  0.16168771  0.91575708  0.16440062  1.0
  Zr  Zr183  1  0.49502104  0.24909042  0.16440062  1.0
  Zr  Zr184  1  0.49502104  0.58242375  0.16440062  1.0
  Zr  Zr185  1  0.49502104  0.91575708  0.16440062  1.0
  Zr  Zr186  1  0.82835437  0.24909042  0.16440062  1.0
  Zr  Zr187  1  0.82835438  0.58242375  0.16440062  1.0
  Zr  Zr188  1  0.82835437  0.91575708  0.16440062  1.0
  Zr  Zr189  1  0.26585438  0.12409042  0.22690062  1.0
  Zr  Zr190  1  0.26585438  0.45742375  0.22690062  1.0
  Zr  Zr191  1  0.26585438  0.79075708  0.22690062  1.0
  Zr  Zr192  1  0.59918771  0.12409042  0.22690062  1.0
  Zr  Zr193  1  0.59918771  0.45742375  0.22690062  1.0
  Zr  Zr194  1  0.59918771  0.79075708  0.22690062  1.0
  Zr  Zr195  1  0.93252104  0.12409042  0.22690062  1.0
  Zr  Zr196  1  0.93252104  0.45742375  0.22690062  1.0
  Zr  Zr197  1  0.93252104  0.79075708  0.22690062  1.0
  Zr  Zr198  1  0.08695187  0.31703208  0.18478312  1.0
  Zr  Zr199  1  0.08695187  0.65036542  0.18478312  1.0
  Zr  Zr200  1  0.08695188  0.98369875  0.18478312  1.0
  Zr  Zr201  1  0.42028521  0.31703208  0.18478312  1.0
  Zr  Zr202  1  0.42028521  0.65036542  0.18478312  1.0
  Zr  Zr203  1  0.42028521  0.98369875  0.18478312  1.0
  Zr  Zr204  1  0.75361854  0.31703208  0.18478312  1.0
  Zr  Zr205  1  0.75361854  0.65036542  0.18478312  1.0
  Zr  Zr206  1  0.75361854  0.98369875  0.18478312  1.0
  Zr  Zr207  1  0.19111854  0.19203208  0.24728312  1.0
  Zr  Zr208  1  0.19111854  0.52536542  0.24728313  1.0
  Zr  Zr209  1  0.19111854  0.85869875  0.24728312  1.0
  Zr  Zr210  1  0.52445187  0.19203208  0.24728312  1.0
  Zr  Zr211  1  0.52445188  0.52536542  0.24728313  1.0
  Zr  Zr212  1  0.52445188  0.85869875  0.24728313  1.0
  Zr  Zr213  1  0.85778521  0.19203208  0.24728313  1.0
  Zr  Zr214  1  0.85778521  0.52536542  0.24728313  1.0
  Zr  Zr215  1  0.85778521  0.85869875  0.24728312  1.0
  Zr  Zr216  1  0.27173104  0.01992375  0.19565062  1.0
  Zr  Zr217  1  0.27173104  0.35325708  0.19565062  1.0
  Zr  Zr218  1  0.27173104  0.68659042  0.19565062  1.0
  Zr  Zr219  1  0.60506438  0.01992375  0.19565062  1.0
  Zr  Zr220  1  0.60506437  0.35325708  0.19565062  1.0
  Zr  Zr221  1  0.60506437  0.68659042  0.19565062  1.0
  Zr  Zr222  1  0.93839771  0.01992375  0.19565062  1.0
  Zr  Zr223  1  0.93839771  0.35325708  0.19565062  1.0
  Zr  Zr224  1  0.93839771  0.68659042  0.19565062  1.0
  Zr  Zr225  1  0.16756438  0.14492375  0.13315063  1.0
  Zr  Zr226  1  0.16756438  0.47825708  0.13315063  1.0
  Zr  Zr227  1  0.16756438  0.81159042  0.13315063  1.0
  Zr  Zr228  1  0.50089771  0.14492375  0.13315063  1.0
  Zr  Zr229  1  0.50089771  0.47825708  0.13315063  1.0
  Zr  Zr230  1  0.50089771  0.81159042  0.13315063  1.0
  Zr  Zr231  1  0.83423104  0.14492375  0.13315063  1.0
  Zr  Zr232  1  0.83423104  0.47825708  0.13315063  1.0
  Zr  Zr233  1  0.83423104  0.81159042  0.13315063  1.0
  Zr  Zr234  1  0.31024188  0.21286542  0.15353312  1.0
  Zr  Zr235  1  0.31024188  0.54619875  0.15353312  1.0
  Zr  Zr236  1  0.31024188  0.87953208  0.15353312  1.0
  Zr  Zr237  1  0.64357521  0.21286542  0.15353312  1.0
  Zr  Zr238  1  0.64357521  0.54619875  0.15353312  1.0
  Zr  Zr239  1  0.64357521  0.87953208  0.15353312  1.0
  Zr  Zr240  1  0.97690854  0.21286542  0.15353312  1.0
  Zr  Zr241  1  0.97690854  0.54619875  0.15353312  1.0
  Zr  Zr242  1  0.97690854  0.87953208  0.15353312  1.0
  Zr  Zr243  1  0.08107521  0.08786542  0.21603312  1.0
  Zr  Zr244  1  0.08107521  0.42119875  0.21603312  1.0
  Zr  Zr245  1  0.08107521  0.75453208  0.21603312  1.0
  Zr  Zr246  1  0.41440854  0.08786542  0.21603312  1.0
  Zr  Zr247  1  0.41440854  0.42119875  0.21603312  1.0
  Zr  Zr248  1  0.41440854  0.75453208  0.21603312  1.0
  Zr  Zr249  1  0.74774187  0.08786542  0.21603312  1.0
  Zr  Zr250  1  0.74774187  0.42119875  0.21603312  1.0
  Zr  Zr251  1  0.74774188  0.75453208  0.21603312  1.0
  Zr  Zr252  1  0.03668771  0.33242375  0.28940063  1.0
  Zr  Zr253  1  0.03668771  0.66575708  0.28940063  1.0
  Zr  Zr254  1  0.03668771  0.99909042  0.28940063  1.0
  Zr  Zr255  1  0.37002104  0.33242375  0.28940063  1.0
  Zr  Zr256  1  0.37002104  0.66575708  0.28940063  1.0
  Zr  Zr257  1  0.37002104  0.99909042  0.28940063  1.0
  Zr  Zr258  1  0.70335437  0.33242375  0.28940063  1.0
  Zr  Zr259  1  0.70335437  0.66575708  0.28940063  1.0
  Zr  Zr260  1  0.70335437  0.99909042  0.28940063  1.0
  Zr  Zr261  1  0.14085438  0.20742375  0.35190062  1.0
  Zr  Zr262  1  0.14085438  0.54075708  0.35190063  1.0
  Zr  Zr263  1  0.14085438  0.87409042  0.35190062  1.0
  Zr  Zr264  1  0.47418771  0.20742375  0.35190062  1.0
  Zr  Zr265  1  0.47418771  0.54075708  0.35190063  1.0
  Zr  Zr266  1  0.47418771  0.87409042  0.35190062  1.0
  Zr  Zr267  1  0.80752104  0.20742375  0.35190062  1.0
  Zr  Zr268  1  0.80752104  0.54075708  0.35190062  1.0
  Zr  Zr269  1  0.80752104  0.87409042  0.35190062  1.0
  Zr  Zr270  1  0.29528521  0.06703208  0.30978312  1.0
  Zr  Zr271  1  0.29528521  0.40036542  0.30978312  1.0
  Zr  Zr272  1  0.29528521  0.73369875  0.30978312  1.0
  Zr  Zr273  1  0.62861854  0.06703208  0.30978312  1.0
  Zr  Zr274  1  0.62861854  0.40036542  0.30978312  1.0
  Zr  Zr275  1  0.62861854  0.73369875  0.30978312  1.0
  Zr  Zr276  1  0.96195187  0.06703208  0.30978312  1.0
  Zr  Zr277  1  0.96195187  0.40036542  0.30978312  1.0
  Zr  Zr278  1  0.96195187  0.73369875  0.30978312  1.0
  Zr  Zr279  1  0.06611854  0.27536542  0.37228312  1.0
  Zr  Zr280  1  0.06611854  0.60869875  0.37228312  1.0
  Zr  Zr281  1  0.06611854  0.94203208  0.37228312  1.0
  Zr  Zr282  1  0.39945187  0.27536542  0.37228312  1.0
  Zr  Zr283  1  0.39945187  0.60869875  0.37228312  1.0
  Zr  Zr284  1  0.39945187  0.94203208  0.37228312  1.0
  Zr  Zr285  1  0.73278521  0.27536542  0.37228312  1.0
  Zr  Zr286  1  0.73278521  0.60869875  0.37228312  1.0
  Zr  Zr287  1  0.73278521  0.94203208  0.37228312  1.0
  Zr  Zr288  1  0.14673104  0.10325708  0.32065062  1.0
  Zr  Zr289  1  0.14673104  0.43659042  0.32065062  1.0
  Zr  Zr290  1  0.14673104  0.76992375  0.32065062  1.0
  Zr  Zr291  1  0.48006437  0.10325708  0.32065062  1.0
  Zr  Zr292  1  0.48006437  0.43659042  0.32065062  1.0
  Zr  Zr293  1  0.48006437  0.76992375  0.32065062  1.0
  Zr  Zr294  1  0.81339771  0.10325708  0.32065062  1.0
  Zr  Zr295  1  0.81339771  0.43659042  0.32065062  1.0
  Zr  Zr296  1  0.81339771  0.76992375  0.32065062  1.0
  Zr  Zr297  1  0.04256438  0.22825708  0.25815062  1.0
  Zr  Zr298  1  0.04256438  0.56159042  0.25815062  1.0
  Zr  Zr299  1  0.04256438  0.89492375  0.25815062  1.0
  Zr  Zr300  1  0.37589771  0.22825708  0.25815062  1.0
  Zr  Zr301  1  0.37589771  0.56159042  0.25815062  1.0
  Zr  Zr302  1  0.37589771  0.89492375  0.25815062  1.0
  Zr  Zr303  1  0.70923104  0.22825708  0.25815062  1.0
  Zr  Zr304  1  0.70923104  0.56159042  0.25815062  1.0
  Zr  Zr305  1  0.70923104  0.89492375  0.25815062  1.0
  Zr  Zr306  1  0.18524188  0.29619875  0.27853312  1.0
  Zr  Zr307  1  0.18524188  0.62953208  0.27853312  1.0
  Zr  Zr308  1  0.18524188  0.96286542  0.27853312  1.0
  Zr  Zr309  1  0.51857521  0.29619875  0.27853312  1.0
  Zr  Zr310  1  0.51857521  0.62953208  0.27853312  1.0
  Zr  Zr311  1  0.51857521  0.96286542  0.27853312  1.0
  Zr  Zr312  1  0.85190854  0.29619875  0.27853312  1.0
  Zr  Zr313  1  0.85190854  0.62953208  0.27853312  1.0
  Zr  Zr314  1  0.85190854  0.96286542  0.27853312  1.0
  Zr  Zr315  1  0.28940854  0.17119875  0.34103312  1.0
  Zr  Zr316  1  0.28940854  0.50453208  0.34103312  1.0
  Zr  Zr317  1  0.28940854  0.83786542  0.34103312  1.0
  Zr  Zr318  1  0.62274188  0.17119875  0.34103312  1.0
  Zr  Zr319  1  0.62274188  0.50453208  0.34103312  1.0
  Zr  Zr320  1  0.62274188  0.83786542  0.34103312  1.0
  Zr  Zr321  1  0.95607521  0.17119875  0.34103312  1.0
  Zr  Zr322  1  0.95607521  0.50453208  0.34103312  1.0
  Zr  Zr323  1  0.95607521  0.83786542  0.34103312  1.0
