# generated using pymatgen
data_Zr2Ni7
_symmetry_space_group_name_H-M   'P 1'
_cell_length_a   20.17956197
_cell_length_b   24.45644965
_cell_length_c   32.37256689
_cell_angle_alpha   95.17740187
_cell_angle_beta   90.84779193
_cell_angle_gamma   112.25969310
_symmetry_Int_Tables_number   1
_chemical_formula_structural   Zr2Ni7
_chemical_formula_sum   'Zr108 Ni378'
_cell_volume   14704.76403974
_cell_formula_units_Z   54
loop_
 _symmetry_equiv_pos_site_id
 _symmetry_equiv_pos_as_xyz
  1  'x, y, z'
loop_
 _atom_site_type_symbol
 _atom_site_label
 _atom_site_symmetry_multiplicity
 _atom_site_fract_x
 _atom_site_fract_y
 _atom_site_fract_z
 _atom_site_occupancy
  Ni  Ni0  1  0.13291212  0.25000000  0.10126364  1.0
  Ni  Ni1  1  0.13291212  0.58333333  0.10126364  1.0
  Ni  Ni2  1  0.13291212  0.91666667  0.10126364  1.0
  Ni  Ni3  1  0.46624545  0.25000000  0.10126364  1.0
  Ni  Ni4  1  0.46624545  0.58333333  0.10126364  1.0
  Ni  Ni5  1  0.46624545  0.91666667  0.10126364  1.0
  Ni  Ni6  1  0.79957879  0.25000000  0.10126364  1.0
  Ni  Ni7  1  0.79957879  0.58333333  0.10126364  1.0
  Ni  Ni8  1  0.79957879  0.91666667  0.10126364  1.0
  Ni  Ni9  1  0.15672164  0.08333333  0.02983507  1.0
  Ni  Ni10  1  0.15672164  0.41666667  0.02983507  1.0
  Ni  Ni11  1  0.15672164  0.75000000  0.02983507  1.0
  Ni  Ni12  1  0.49005498  0.08333333  0.02983507  1.0
  Ni  Ni13  1  0.49005498  0.41666667  0.02983507  1.0
  Ni  Ni14  1  0.49005498  0.75000000  0.02983507  1.0
  Ni  Ni15  1  0.82338831  0.08333333  0.02983507  1.0
  Ni  Ni16  1  0.82338831  0.41666667  0.02983507  1.0
  Ni  Ni17  1  0.82338831  0.75000000  0.02983507  1.0
  Ni  Ni18  1  0.25423564  0.09187433  0.08088407  1.0
  Ni  Ni19  1  0.25423564  0.42520767  0.08088407  1.0
  Ni  Ni20  1  0.25423564  0.75854100  0.08088407  1.0
  Ni  Ni21  1  0.58756898  0.09187433  0.08088407  1.0
  Ni  Ni22  1  0.58756898  0.42520767  0.08088407  1.0
  Ni  Ni23  1  0.58756898  0.75854100  0.08088407  1.0
  Ni  Ni24  1  0.92090231  0.09187433  0.08088407  1.0
  Ni  Ni25  1  0.92090231  0.42520767  0.08088407  1.0
  Ni  Ni26  1  0.92090231  0.75854100  0.08088407  1.0
  Ni  Ni27  1  0.27804517  0.25854100  0.00945550  1.0
  Ni  Ni28  1  0.27804517  0.59187433  0.00945550  1.0
  Ni  Ni29  1  0.27804517  0.92520767  0.00945550  1.0
  Ni  Ni30  1  0.61137850  0.25854100  0.00945550  1.0
  Ni  Ni31  1  0.61137850  0.59187433  0.00945550  1.0
  Ni  Ni32  1  0.61137850  0.92520767  0.00945550  1.0
  Ni  Ni33  1  0.94471183  0.25854100  0.00945550  1.0
  Ni  Ni34  1  0.94471183  0.59187433  0.00945550  1.0
  Ni  Ni35  1  0.94471183  0.92520767  0.00945550  1.0
  Ni  Ni36  1  0.03551336  0.01950567  0.04986893  1.0
  Ni  Ni37  1  0.03551336  0.35283900  0.04986893  1.0
  Ni  Ni38  1  0.03551336  0.68617233  0.04986893  1.0
  Ni  Ni39  1  0.36884669  0.01950567  0.04986893  1.0
  Ni  Ni40  1  0.36884669  0.35283900  0.04986893  1.0
  Ni  Ni41  1  0.36884669  0.68617233  0.04986893  1.0
  Ni  Ni42  1  0.70218002  0.01950567  0.04986893  1.0
  Ni  Ni43  1  0.70218002  0.35283900  0.04986893  1.0
  Ni  Ni44  1  0.70218002  0.68617233  0.04986893  1.0
  Ni  Ni45  1  0.01170383  0.18617233  0.12129750  1.0
  Ni  Ni46  1  0.01170383  0.51950567  0.12129750  1.0
  Ni  Ni47  1  0.01170383  0.85283900  0.12129750  1.0
  Ni  Ni48  1  0.34503717  0.18617233  0.12129750  1.0
  Ni  Ni49  1  0.34503717  0.51950567  0.12129750  1.0
  Ni  Ni50  1  0.34503717  0.85283900  0.12129750  1.0
  Ni  Ni51  1  0.67837050  0.18617233  0.12129750  1.0
  Ni  Ni52  1  0.67837050  0.51950567  0.12129750  1.0
  Ni  Ni53  1  0.67837050  0.85283900  0.12129750  1.0
  Ni  Ni54  1  0.03539812  0.24145900  0.05021464  1.0
  Ni  Ni55  1  0.03539812  0.57479233  0.05021464  1.0
  Ni  Ni56  1  0.03539812  0.90812567  0.05021464  1.0
  Ni  Ni57  1  0.36873145  0.24145900  0.05021464  1.0
  Ni  Ni58  1  0.36873145  0.57479233  0.05021464  1.0
  Ni  Ni59  1  0.36873145  0.90812567  0.05021464  1.0
  Ni  Ni60  1  0.70206479  0.24145900  0.05021464  1.0
  Ni  Ni61  1  0.70206479  0.57479233  0.05021464  1.0
  Ni  Ni62  1  0.70206479  0.90812567  0.05021464  1.0
  Ni  Ni63  1  0.01158860  0.07479233  0.12164321  1.0
  Ni  Ni64  1  0.01158860  0.40812567  0.12164321  1.0
  Ni  Ni65  1  0.01158860  0.74145900  0.12164321  1.0
  Ni  Ni66  1  0.34492193  0.07479233  0.12164321  1.0
  Ni  Ni67  1  0.34492193  0.40812567  0.12164321  1.0
  Ni  Ni68  1  0.34492193  0.74145900  0.12164321  1.0
  Ni  Ni69  1  0.67825526  0.07479233  0.12164321  1.0
  Ni  Ni70  1  0.67825526  0.40812567  0.12164321  1.0
  Ni  Ni71  1  0.67825526  0.74145900  0.12164321  1.0
  Ni  Ni72  1  0.25412040  0.31382767  0.08122979  1.0
  Ni  Ni73  1  0.25412040  0.64716100  0.08122979  1.0
  Ni  Ni74  1  0.25412040  0.98049433  0.08122979  1.0
  Ni  Ni75  1  0.58745374  0.31382767  0.08122979  1.0
  Ni  Ni76  1  0.58745374  0.64716100  0.08122979  1.0
  Ni  Ni77  1  0.58745374  0.98049433  0.08122979  1.0
  Ni  Ni78  1  0.92078707  0.31382767  0.08122979  1.0
  Ni  Ni79  1  0.92078707  0.64716100  0.08122979  1.0
  Ni  Ni80  1  0.92078707  0.98049433  0.08122979  1.0
  Ni  Ni81  1  0.27792993  0.14716100  0.00980121  1.0
  Ni  Ni82  1  0.27792993  0.48049433  0.00980121  1.0
  Ni  Ni83  1  0.27792993  0.81382767  0.00980121  1.0
  Ni  Ni84  1  0.61126326  0.14716100  0.00980121  1.0
  Ni  Ni85  1  0.61126326  0.48049433  0.00980121  1.0
  Ni  Ni86  1  0.61126326  0.81382767  0.00980121  1.0
  Ni  Ni87  1  0.94459660  0.14716100  0.00980121  1.0
  Ni  Ni88  1  0.94459660  0.48049433  0.00980121  1.0
  Ni  Ni89  1  0.94459660  0.81382767  0.00980121  1.0
  Ni  Ni90  1  0.14481688  0.33333333  0.06554936  1.0
  Ni  Ni91  1  0.14481688  0.66666667  0.06554936  1.0
  Ni  Ni92  1  0.14481688  0.00000000  0.06554936  1.0
  Ni  Ni93  1  0.47815021  0.33333333  0.06554936  1.0
  Ni  Ni94  1  0.47815021  0.66666667  0.06554936  1.0
  Ni  Ni95  1  0.47815021  0.00000000  0.06554936  1.0
  Ni  Ni96  1  0.81148355  0.33333333  0.06554936  1.0
  Ni  Ni97  1  0.81148355  0.66666667  0.06554936  1.0
  Ni  Ni98  1  0.81148355  0.00000000  0.06554936  1.0
  Ni  Ni99  1  0.12100736  0.16666667  0.13697793  1.0
  Ni  Ni100  1  0.12100736  0.50000000  0.13697793  1.0
  Ni  Ni101  1  0.12100736  0.83333333  0.13697793  1.0
  Ni  Ni102  1  0.45434069  0.16666667  0.13697793  1.0
  Ni  Ni103  1  0.45434069  0.50000000  0.13697793  1.0
  Ni  Ni104  1  0.45434069  0.83333333  0.13697793  1.0
  Ni  Ni105  1  0.78767402  0.16666667  0.13697793  1.0
  Ni  Ni106  1  0.78767402  0.50000000  0.13697793  1.0
  Ni  Ni107  1  0.78767402  0.83333333  0.13697793  1.0
  Ni  Ni108  1  0.15672164  0.25000000  0.02983507  1.0
  Ni  Ni109  1  0.15672164  0.58333333  0.02983507  1.0
  Ni  Ni110  1  0.15672164  0.91666667  0.02983507  1.0
  Ni  Ni111  1  0.49005498  0.25000000  0.02983507  1.0
  Ni  Ni112  1  0.49005498  0.58333333  0.02983507  1.0
  Ni  Ni113  1  0.49005498  0.91666667  0.02983507  1.0
  Ni  Ni114  1  0.82338831  0.25000000  0.02983507  1.0
  Ni  Ni115  1  0.82338831  0.58333333  0.02983507  1.0
  Ni  Ni116  1  0.82338831  0.91666667  0.02983507  1.0
  Ni  Ni117  1  0.13291212  0.08333333  0.10126364  1.0
  Ni  Ni118  1  0.13291212  0.41666667  0.10126364  1.0
  Ni  Ni119  1  0.13291212  0.75000000  0.10126364  1.0
  Ni  Ni120  1  0.46624545  0.08333333  0.10126364  1.0
  Ni  Ni121  1  0.46624545  0.41666667  0.10126364  1.0
  Ni  Ni122  1  0.46624545  0.75000000  0.10126364  1.0
  Ni  Ni123  1  0.79957879  0.08333333  0.10126364  1.0
  Ni  Ni124  1  0.79957879  0.41666667  0.10126364  1.0
  Ni  Ni125  1  0.79957879  0.75000000  0.10126364  1.0
  Ni  Ni126  1  0.08529307  0.25000000  0.24412079  1.0
  Ni  Ni127  1  0.08529307  0.58333333  0.24412079  1.0
  Ni  Ni128  1  0.08529307  0.91666667  0.24412079  1.0
  Ni  Ni129  1  0.41862640  0.25000000  0.24412079  1.0
  Ni  Ni130  1  0.41862640  0.58333333  0.24412079  1.0
  Ni  Ni131  1  0.41862640  0.91666667  0.24412079  1.0
  Ni  Ni132  1  0.75195974  0.25000000  0.24412079  1.0
  Ni  Ni133  1  0.75195974  0.58333333  0.24412079  1.0
  Ni  Ni134  1  0.75195974  0.91666667  0.24412079  1.0
  Ni  Ni135  1  0.10910260  0.08333333  0.17269221  1.0
  Ni  Ni136  1  0.10910260  0.41666667  0.17269221  1.0
  Ni  Ni137  1  0.10910260  0.75000000  0.17269221  1.0
  Ni  Ni138  1  0.44243593  0.08333333  0.17269221  1.0
  Ni  Ni139  1  0.44243593  0.41666667  0.17269221  1.0
  Ni  Ni140  1  0.44243593  0.75000000  0.17269221  1.0
  Ni  Ni141  1  0.77576926  0.08333333  0.17269221  1.0
  Ni  Ni142  1  0.77576926  0.41666667  0.17269221  1.0
  Ni  Ni143  1  0.77576926  0.75000000  0.17269221  1.0
  Ni  Ni144  1  0.20661660  0.09187433  0.22374121  1.0
  Ni  Ni145  1  0.20661660  0.42520767  0.22374121  1.0
  Ni  Ni146  1  0.20661660  0.75854100  0.22374121  1.0
  Ni  Ni147  1  0.53994993  0.09187433  0.22374121  1.0
  Ni  Ni148  1  0.53994993  0.42520767  0.22374121  1.0
  Ni  Ni149  1  0.53994993  0.75854100  0.22374121  1.0
  Ni  Ni150  1  0.87328326  0.09187433  0.22374121  1.0
  Ni  Ni151  1  0.87328326  0.42520767  0.22374121  1.0
  Ni  Ni152  1  0.87328326  0.75854100  0.22374121  1.0
  Ni  Ni153  1  0.23042612  0.25854100  0.15231264  1.0
  Ni  Ni154  1  0.23042612  0.59187433  0.15231264  1.0
  Ni  Ni155  1  0.23042612  0.92520767  0.15231264  1.0
  Ni  Ni156  1  0.56375945  0.25854100  0.15231264  1.0
  Ni  Ni157  1  0.56375945  0.59187433  0.15231264  1.0
  Ni  Ni158  1  0.56375945  0.92520767  0.15231264  1.0
  Ni  Ni159  1  0.89709279  0.25854100  0.15231264  1.0
  Ni  Ni160  1  0.89709279  0.59187433  0.15231264  1.0
  Ni  Ni161  1  0.89709279  0.92520767  0.15231264  1.0
  Ni  Ni162  1  0.32122764  0.01950567  0.19272607  1.0
  Ni  Ni163  1  0.32122764  0.35283900  0.19272607  1.0
  Ni  Ni164  1  0.32122764  0.68617233  0.19272607  1.0
  Ni  Ni165  1  0.65456098  0.01950567  0.19272607  1.0
  Ni  Ni166  1  0.65456098  0.35283900  0.19272607  1.0
  Ni  Ni167  1  0.65456098  0.68617233  0.19272607  1.0
  Ni  Ni168  1  0.98789431  0.01950567  0.19272607  1.0
  Ni  Ni169  1  0.98789431  0.35283900  0.19272607  1.0
  Ni  Ni170  1  0.98789431  0.68617233  0.19272607  1.0
  Ni  Ni171  1  0.29741812  0.18617233  0.26415464  1.0
  Ni  Ni172  1  0.29741812  0.51950567  0.26415464  1.0
  Ni  Ni173  1  0.29741812  0.85283900  0.26415464  1.0
  Ni  Ni174  1  0.63075145  0.18617233  0.26415464  1.0
  Ni  Ni175  1  0.63075145  0.51950567  0.26415464  1.0
  Ni  Ni176  1  0.63075145  0.85283900  0.26415464  1.0
  Ni  Ni177  1  0.96408479  0.18617233  0.26415464  1.0
  Ni  Ni178  1  0.96408479  0.51950567  0.26415464  1.0
  Ni  Ni179  1  0.96408479  0.85283900  0.26415464  1.0
  Ni  Ni180  1  0.32111240  0.24145900  0.19307179  1.0
  Ni  Ni181  1  0.32111240  0.57479233  0.19307179  1.0
  Ni  Ni182  1  0.32111240  0.90812567  0.19307179  1.0
  Ni  Ni183  1  0.65444574  0.24145900  0.19307179  1.0
  Ni  Ni184  1  0.65444574  0.57479233  0.19307179  1.0
  Ni  Ni185  1  0.65444574  0.90812567  0.19307179  1.0
  Ni  Ni186  1  0.98777907  0.24145900  0.19307179  1.0
  Ni  Ni187  1  0.98777907  0.57479233  0.19307179  1.0
  Ni  Ni188  1  0.98777907  0.90812567  0.19307179  1.0
  Ni  Ni189  1  0.29730288  0.07479233  0.26450036  1.0
  Ni  Ni190  1  0.29730288  0.40812567  0.26450036  1.0
  Ni  Ni191  1  0.29730288  0.74145900  0.26450036  1.0
  Ni  Ni192  1  0.63063621  0.07479233  0.26450036  1.0
  Ni  Ni193  1  0.63063621  0.40812567  0.26450036  1.0
  Ni  Ni194  1  0.63063621  0.74145900  0.26450036  1.0
  Ni  Ni195  1  0.96396955  0.07479233  0.26450036  1.0
  Ni  Ni196  1  0.96396955  0.40812567  0.26450036  1.0
  Ni  Ni197  1  0.96396955  0.74145900  0.26450036  1.0
  Ni  Ni198  1  0.20650136  0.31382767  0.22408693  1.0
  Ni  Ni199  1  0.20650136  0.64716100  0.22408693  1.0
  Ni  Ni200  1  0.20650136  0.98049433  0.22408693  1.0
  Ni  Ni201  1  0.53983469  0.31382767  0.22408693  1.0
  Ni  Ni202  1  0.53983469  0.64716100  0.22408693  1.0
  Ni  Ni203  1  0.53983469  0.98049433  0.22408693  1.0
  Ni  Ni204  1  0.87316802  0.31382767  0.22408693  1.0
  Ni  Ni205  1  0.87316802  0.64716100  0.22408693  1.0
  Ni  Ni206  1  0.87316802  0.98049433  0.22408693  1.0
  Ni  Ni207  1  0.23031088  0.14716100  0.15265836  1.0
  Ni  Ni208  1  0.23031088  0.48049433  0.15265836  1.0
  Ni  Ni209  1  0.23031088  0.81382767  0.15265836  1.0
  Ni  Ni210  1  0.56364421  0.14716100  0.15265836  1.0
  Ni  Ni211  1  0.56364421  0.48049433  0.15265836  1.0
  Ni  Ni212  1  0.56364421  0.81382767  0.15265836  1.0
  Ni  Ni213  1  0.89697755  0.14716100  0.15265836  1.0
  Ni  Ni214  1  0.89697755  0.48049433  0.15265836  1.0
  Ni  Ni215  1  0.89697755  0.81382767  0.15265836  1.0
  Ni  Ni216  1  0.09719783  0.33333333  0.20840650  1.0
  Ni  Ni217  1  0.09719783  0.66666667  0.20840650  1.0
  Ni  Ni218  1  0.09719783  0.00000000  0.20840650  1.0
  Ni  Ni219  1  0.43053117  0.33333333  0.20840650  1.0
  Ni  Ni220  1  0.43053117  0.66666667  0.20840650  1.0
  Ni  Ni221  1  0.43053117  0.00000000  0.20840650  1.0
  Ni  Ni222  1  0.76386450  0.33333333  0.20840650  1.0
  Ni  Ni223  1  0.76386450  0.66666667  0.20840650  1.0
  Ni  Ni224  1  0.76386450  0.00000000  0.20840650  1.0
  Ni  Ni225  1  0.07338831  0.16666667  0.27983507  1.0
  Ni  Ni226  1  0.07338831  0.50000000  0.27983507  1.0
  Ni  Ni227  1  0.07338831  0.83333333  0.27983507  1.0
  Ni  Ni228  1  0.40672164  0.16666667  0.27983507  1.0
  Ni  Ni229  1  0.40672164  0.50000000  0.27983507  1.0
  Ni  Ni230  1  0.40672164  0.83333333  0.27983507  1.0
  Ni  Ni231  1  0.74005498  0.16666667  0.27983507  1.0
  Ni  Ni232  1  0.74005498  0.50000000  0.27983507  1.0
  Ni  Ni233  1  0.74005498  0.83333333  0.27983507  1.0
  Ni  Ni234  1  0.10910260  0.25000000  0.17269221  1.0
  Ni  Ni235  1  0.10910260  0.58333333  0.17269221  1.0
  Ni  Ni236  1  0.10910260  0.91666667  0.17269221  1.0
  Ni  Ni237  1  0.44243593  0.25000000  0.17269221  1.0
  Ni  Ni238  1  0.44243593  0.58333333  0.17269221  1.0
  Ni  Ni239  1  0.44243593  0.91666667  0.17269221  1.0
  Ni  Ni240  1  0.77576926  0.25000000  0.17269221  1.0
  Ni  Ni241  1  0.77576926  0.58333333  0.17269221  1.0
  Ni  Ni242  1  0.77576926  0.91666667  0.17269221  1.0
  Ni  Ni243  1  0.08529307  0.08333333  0.24412079  1.0
  Ni  Ni244  1  0.08529307  0.41666667  0.24412079  1.0
  Ni  Ni245  1  0.08529307  0.75000000  0.24412079  1.0
  Ni  Ni246  1  0.41862640  0.08333333  0.24412079  1.0
  Ni  Ni247  1  0.41862640  0.41666667  0.24412079  1.0
  Ni  Ni248  1  0.41862640  0.75000000  0.24412079  1.0
  Ni  Ni249  1  0.75195974  0.08333333  0.24412079  1.0
  Ni  Ni250  1  0.75195974  0.41666667  0.24412079  1.0
  Ni  Ni251  1  0.75195974  0.75000000  0.24412079  1.0
  Ni  Ni252  1  0.03767402  0.25000000  0.38697793  1.0
  Ni  Ni253  1  0.03767402  0.58333333  0.38697793  1.0
  Ni  Ni254  1  0.03767402  0.91666667  0.38697793  1.0
  Ni  Ni255  1  0.37100736  0.25000000  0.38697793  1.0
  Ni  Ni256  1  0.37100736  0.58333333  0.38697793  1.0
  Ni  Ni257  1  0.37100736  0.91666667  0.38697793  1.0
  Ni  Ni258  1  0.70434069  0.25000000  0.38697793  1.0
  Ni  Ni259  1  0.70434069  0.58333333  0.38697793  1.0
  Ni  Ni260  1  0.70434069  0.91666667  0.38697793  1.0
  Ni  Ni261  1  0.06148355  0.08333333  0.31554936  1.0
  Ni  Ni262  1  0.06148355  0.41666667  0.31554936  1.0
  Ni  Ni263  1  0.06148355  0.75000000  0.31554936  1.0
  Ni  Ni264  1  0.39481688  0.08333333  0.31554936  1.0
  Ni  Ni265  1  0.39481688  0.41666667  0.31554936  1.0
  Ni  Ni266  1  0.39481688  0.75000000  0.31554936  1.0
  Ni  Ni267  1  0.72815021  0.08333333  0.31554936  1.0
  Ni  Ni268  1  0.72815021  0.41666667  0.31554936  1.0
  Ni  Ni269  1  0.72815021  0.75000000  0.31554936  1.0
  Ni  Ni270  1  0.15899755  0.09187433  0.36659836  1.0
  Ni  Ni271  1  0.15899755  0.42520767  0.36659836  1.0
  Ni  Ni272  1  0.15899755  0.75854100  0.36659836  1.0
  Ni  Ni273  1  0.49233088  0.09187433  0.36659836  1.0
  Ni  Ni274  1  0.49233088  0.42520767  0.36659836  1.0
  Ni  Ni275  1  0.49233088  0.75854100  0.36659836  1.0
  Ni  Ni276  1  0.82566421  0.09187433  0.36659836  1.0
  Ni  Ni277  1  0.82566421  0.42520767  0.36659836  1.0
  Ni  Ni278  1  0.82566421  0.75854100  0.36659836  1.0
  Ni  Ni279  1  0.18280707  0.25854100  0.29516979  1.0
  Ni  Ni280  1  0.18280707  0.59187433  0.29516979  1.0
  Ni  Ni281  1  0.18280707  0.92520767  0.29516979  1.0
  Ni  Ni282  1  0.51614040  0.25854100  0.29516979  1.0
  Ni  Ni283  1  0.51614040  0.59187433  0.29516979  1.0
  Ni  Ni284  1  0.51614040  0.92520767  0.29516979  1.0
  Ni  Ni285  1  0.84947374  0.25854100  0.29516979  1.0
  Ni  Ni286  1  0.84947374  0.59187433  0.29516979  1.0
  Ni  Ni287  1  0.84947374  0.92520767  0.29516979  1.0
  Ni  Ni288  1  0.27360860  0.01950567  0.33558321  1.0
  Ni  Ni289  1  0.27360860  0.35283900  0.33558321  1.0
  Ni  Ni290  1  0.27360860  0.68617233  0.33558321  1.0
  Ni  Ni291  1  0.60694193  0.01950567  0.33558321  1.0
  Ni  Ni292  1  0.60694193  0.35283900  0.33558321  1.0
  Ni  Ni293  1  0.60694193  0.68617233  0.33558321  1.0
  Ni  Ni294  1  0.94027526  0.01950567  0.33558321  1.0
  Ni  Ni295  1  0.94027526  0.35283900  0.33558321  1.0
  Ni  Ni296  1  0.94027526  0.68617233  0.33558321  1.0
  Ni  Ni297  1  0.24979907  0.18617233  0.40701179  1.0
  Ni  Ni298  1  0.24979907  0.51950567  0.40701179  1.0
  Ni  Ni299  1  0.24979907  0.85283900  0.40701179  1.0
  Ni  Ni300  1  0.58313240  0.18617233  0.40701179  1.0
  Ni  Ni301  1  0.58313240  0.51950567  0.40701179  1.0
  Ni  Ni302  1  0.58313240  0.85283900  0.40701179  1.0
  Ni  Ni303  1  0.91646574  0.18617233  0.40701179  1.0
  Ni  Ni304  1  0.91646574  0.51950567  0.40701179  1.0
  Ni  Ni305  1  0.91646574  0.85283900  0.40701179  1.0
  Ni  Ni306  1  0.27349336  0.24145900  0.33592893  1.0
  Ni  Ni307  1  0.27349336  0.57479233  0.33592893  1.0
  Ni  Ni308  1  0.27349336  0.90812567  0.33592893  1.0
  Ni  Ni309  1  0.60682669  0.24145900  0.33592893  1.0
  Ni  Ni310  1  0.60682669  0.57479233  0.33592893  1.0
  Ni  Ni311  1  0.60682669  0.90812567  0.33592893  1.0
  Ni  Ni312  1  0.94016002  0.24145900  0.33592893  1.0
  Ni  Ni313  1  0.94016002  0.57479233  0.33592893  1.0
  Ni  Ni314  1  0.94016002  0.90812567  0.33592893  1.0
  Ni  Ni315  1  0.24968383  0.07479233  0.40735750  1.0
  Ni  Ni316  1  0.24968383  0.40812567  0.40735750  1.0
  Ni  Ni317  1  0.24968383  0.74145900  0.40735750  1.0
  Ni  Ni318  1  0.58301717  0.07479233  0.40735750  1.0
  Ni  Ni319  1  0.58301717  0.40812567  0.40735750  1.0
  Ni  Ni320  1  0.58301717  0.74145900  0.40735750  1.0
  Ni  Ni321  1  0.91635050  0.07479233  0.40735750  1.0
  Ni  Ni322  1  0.91635050  0.40812567  0.40735750  1.0
  Ni  Ni323  1  0.91635050  0.74145900  0.40735750  1.0
  Ni  Ni324  1  0.15888231  0.31382767  0.36694407  1.0
  Ni  Ni325  1  0.15888231  0.64716100  0.36694407  1.0
  Ni  Ni326  1  0.15888231  0.98049433  0.36694407  1.0
  Ni  Ni327  1  0.49221564  0.31382767  0.36694407  1.0
  Ni  Ni328  1  0.49221564  0.64716100  0.36694407  1.0
  Ni  Ni329  1  0.49221564  0.98049433  0.36694407  1.0
  Ni  Ni330  1  0.82554898  0.31382767  0.36694407  1.0
  Ni  Ni331  1  0.82554898  0.64716100  0.36694407  1.0
  Ni  Ni332  1  0.82554898  0.98049433  0.36694407  1.0
  Ni  Ni333  1  0.18269183  0.14716100  0.29551550  1.0
  Ni  Ni334  1  0.18269183  0.48049433  0.29551550  1.0
  Ni  Ni335  1  0.18269183  0.81382767  0.29551550  1.0
  Ni  Ni336  1  0.51602517  0.14716100  0.29551550  1.0
  Ni  Ni337  1  0.51602517  0.48049433  0.29551550  1.0
  Ni  Ni338  1  0.51602517  0.81382767  0.29551550  1.0
  Ni  Ni339  1  0.84935850  0.14716100  0.29551550  1.0
  Ni  Ni340  1  0.84935850  0.48049433  0.29551550  1.0
  Ni  Ni341  1  0.84935850  0.81382767  0.29551550  1.0
  Ni  Ni342  1  0.04957879  0.00000000  0.35126364  1.0
  Ni  Ni343  1  0.04957879  0.33333333  0.35126364  1.0
  Ni  Ni344  1  0.04957879  0.66666667  0.35126364  1.0
  Ni  Ni345  1  0.38291212  0.00000000  0.35126364  1.0
  Ni  Ni346  1  0.38291212  0.33333333  0.35126364  1.0
  Ni  Ni347  1  0.38291212  0.66666667  0.35126364  1.0
  Ni  Ni348  1  0.71624545  0.00000000  0.35126364  1.0
  Ni  Ni349  1  0.71624545  0.33333333  0.35126364  1.0
  Ni  Ni350  1  0.71624545  0.66666667  0.35126364  1.0
  Ni  Ni351  1  0.02576926  0.16666667  0.42269221  1.0
  Ni  Ni352  1  0.02576926  0.50000000  0.42269221  1.0
  Ni  Ni353  1  0.02576926  0.83333333  0.42269221  1.0
  Ni  Ni354  1  0.35910260  0.16666667  0.42269221  1.0
  Ni  Ni355  1  0.35910260  0.50000000  0.42269221  1.0
  Ni  Ni356  1  0.35910260  0.83333333  0.42269221  1.0
  Ni  Ni357  1  0.69243593  0.16666667  0.42269221  1.0
  Ni  Ni358  1  0.69243593  0.50000000  0.42269221  1.0
  Ni  Ni359  1  0.69243593  0.83333333  0.42269221  1.0
  Ni  Ni360  1  0.06148355  0.25000000  0.31554936  1.0
  Ni  Ni361  1  0.06148355  0.58333333  0.31554936  1.0
  Ni  Ni362  1  0.06148355  0.91666667  0.31554936  1.0
  Ni  Ni363  1  0.39481688  0.25000000  0.31554936  1.0
  Ni  Ni364  1  0.39481688  0.58333333  0.31554936  1.0
  Ni  Ni365  1  0.39481688  0.91666667  0.31554936  1.0
  Ni  Ni366  1  0.72815021  0.25000000  0.31554936  1.0
  Ni  Ni367  1  0.72815021  0.58333333  0.31554936  1.0
  Ni  Ni368  1  0.72815021  0.91666667  0.31554936  1.0
  Ni  Ni369  1  0.03767402  0.08333333  0.38697793  1.0
  Ni  Ni370  1  0.03767402  0.41666667  0.38697793  1.0
  Ni  Ni371  1  0.03767402  0.75000000  0.38697793  1.0
  Ni  Ni372  1  0.37100736  0.08333333  0.38697793  1.0
  Ni  Ni373  1  0.37100736  0.41666667  0.38697793  1.0
  Ni  Ni374  1  0.37100736  0.75000000  0.38697793  1.0
  Ni  Ni375  1  0.70434069  0.08333333  0.38697793  1.0
  Ni  Ni376  1  0.70434069  0.41666667  0.38697793  1.0
  Ni  Ni377  1  0.70434069  0.75000000  0.38697793  1.0
  Zr  Zr378  1  0.25527593  0.02743633  0.00587921  1.0
  Zr  Zr379  1  0.25527593  0.36076967  0.00587921  1.0
  Zr  Zr380  1  0.25527593  0.69410300  0.00587921  1.0
  Zr  Zr381  1  0.58860926  0.02743633  0.00587921  1.0
  Zr  Zr382  1  0.58860926  0.36076967  0.00587921  1.0
  Zr  Zr383  1  0.58860926  0.69410300  0.00587921  1.0
  Zr  Zr384  1  0.92194260  0.02743633  0.00587921  1.0
  Zr  Zr385  1  0.92194260  0.36076967  0.00587921  1.0
  Zr  Zr386  1  0.92194260  0.69410300  0.00587921  1.0
  Zr  Zr387  1  0.23146640  0.19410300  0.07730779  1.0
  Zr  Zr388  1  0.23146640  0.52743633  0.07730779  1.0
  Zr  Zr389  1  0.23146640  0.86076967  0.07730779  1.0
  Zr  Zr390  1  0.56479974  0.19410300  0.07730779  1.0
  Zr  Zr391  1  0.56479974  0.52743633  0.07730779  1.0
  Zr  Zr392  1  0.56479974  0.86076967  0.07730779  1.0
  Zr  Zr393  1  0.89813307  0.19410300  0.07730779  1.0
  Zr  Zr394  1  0.89813307  0.52743633  0.07730779  1.0
  Zr  Zr395  1  0.89813307  0.86076967  0.07730779  1.0
  Zr  Zr396  1  0.03435783  0.30589700  0.12521950  1.0
  Zr  Zr397  1  0.03435783  0.63923033  0.12521950  1.0
  Zr  Zr398  1  0.03435783  0.97256367  0.12521950  1.0
  Zr  Zr399  1  0.36769117  0.30589700  0.12521950  1.0
  Zr  Zr400  1  0.36769117  0.63923033  0.12521950  1.0
  Zr  Zr401  1  0.36769117  0.97256367  0.12521950  1.0
  Zr  Zr402  1  0.70102450  0.30589700  0.12521950  1.0
  Zr  Zr403  1  0.70102450  0.63923033  0.12521950  1.0
  Zr  Zr404  1  0.70102450  0.97256367  0.12521950  1.0
  Zr  Zr405  1  0.05816736  0.13923033  0.05379093  1.0
  Zr  Zr406  1  0.05816736  0.47256367  0.05379093  1.0
  Zr  Zr407  1  0.05816736  0.80589700  0.05379093  1.0
  Zr  Zr408  1  0.39150069  0.13923033  0.05379093  1.0
  Zr  Zr409  1  0.39150069  0.47256367  0.05379093  1.0
  Zr  Zr410  1  0.39150069  0.80589700  0.05379093  1.0
  Zr  Zr411  1  0.72483402  0.13923033  0.05379093  1.0
  Zr  Zr412  1  0.72483402  0.47256367  0.05379093  1.0
  Zr  Zr413  1  0.72483402  0.80589700  0.05379093  1.0
  Zr  Zr414  1  0.20765688  0.02743633  0.14873636  1.0
  Zr  Zr415  1  0.20765688  0.36076967  0.14873636  1.0
  Zr  Zr416  1  0.20765688  0.69410300  0.14873636  1.0
  Zr  Zr417  1  0.54099021  0.02743633  0.14873636  1.0
  Zr  Zr418  1  0.54099021  0.36076967  0.14873636  1.0
  Zr  Zr419  1  0.54099021  0.69410300  0.14873636  1.0
  Zr  Zr420  1  0.87432355  0.02743633  0.14873636  1.0
  Zr  Zr421  1  0.87432355  0.36076967  0.14873636  1.0
  Zr  Zr422  1  0.87432355  0.69410300  0.14873636  1.0
  Zr  Zr423  1  0.18384736  0.19410300  0.22016493  1.0
  Zr  Zr424  1  0.18384736  0.52743633  0.22016493  1.0
  Zr  Zr425  1  0.18384736  0.86076967  0.22016493  1.0
  Zr  Zr426  1  0.51718069  0.19410300  0.22016493  1.0
  Zr  Zr427  1  0.51718069  0.52743633  0.22016493  1.0
  Zr  Zr428  1  0.51718069  0.86076967  0.22016493  1.0
  Zr  Zr429  1  0.85051402  0.19410300  0.22016493  1.0
  Zr  Zr430  1  0.85051402  0.52743633  0.22016493  1.0
  Zr  Zr431  1  0.85051402  0.86076967  0.22016493  1.0
  Zr  Zr432  1  0.32007212  0.30589700  0.26807664  1.0
  Zr  Zr433  1  0.32007212  0.63923033  0.26807664  1.0
  Zr  Zr434  1  0.32007212  0.97256367  0.26807664  1.0
  Zr  Zr435  1  0.65340545  0.30589700  0.26807664  1.0
  Zr  Zr436  1  0.65340545  0.63923033  0.26807664  1.0
  Zr  Zr437  1  0.65340545  0.97256367  0.26807664  1.0
  Zr  Zr438  1  0.98673879  0.30589700  0.26807664  1.0
  Zr  Zr439  1  0.98673879  0.63923033  0.26807664  1.0
  Zr  Zr440  1  0.98673879  0.97256367  0.26807664  1.0
  Zr  Zr441  1  0.01054831  0.13923033  0.19664807  1.0
  Zr  Zr442  1  0.01054831  0.47256367  0.19664807  1.0
  Zr  Zr443  1  0.01054831  0.80589700  0.19664807  1.0
  Zr  Zr444  1  0.34388164  0.13923033  0.19664807  1.0
  Zr  Zr445  1  0.34388164  0.47256367  0.19664807  1.0
  Zr  Zr446  1  0.34388164  0.80589700  0.19664807  1.0
  Zr  Zr447  1  0.67721498  0.13923033  0.19664807  1.0
  Zr  Zr448  1  0.67721498  0.47256367  0.19664807  1.0
  Zr  Zr449  1  0.67721498  0.80589700  0.19664807  1.0
  Zr  Zr450  1  0.16003783  0.02743633  0.29159350  1.0
  Zr  Zr451  1  0.16003783  0.36076967  0.29159350  1.0
  Zr  Zr452  1  0.16003783  0.69410300  0.29159350  1.0
  Zr  Zr453  1  0.49337117  0.02743633  0.29159350  1.0
  Zr  Zr454  1  0.49337117  0.36076967  0.29159350  1.0
  Zr  Zr455  1  0.49337117  0.69410300  0.29159350  1.0
  Zr  Zr456  1  0.82670450  0.02743633  0.29159350  1.0
  Zr  Zr457  1  0.82670450  0.36076967  0.29159350  1.0
  Zr  Zr458  1  0.82670450  0.69410300  0.29159350  1.0
  Zr  Zr459  1  0.13622831  0.19410300  0.36302207  1.0
  Zr  Zr460  1  0.13622831  0.52743633  0.36302207  1.0
  Zr  Zr461  1  0.13622831  0.86076967  0.36302207  1.0
  Zr  Zr462  1  0.46956164  0.19410300  0.36302207  1.0
  Zr  Zr463  1  0.46956164  0.52743633  0.36302207  1.0
  Zr  Zr464  1  0.46956164  0.86076967  0.36302207  1.0
  Zr  Zr465  1  0.80289498  0.19410300  0.36302207  1.0
  Zr  Zr466  1  0.80289498  0.52743633  0.36302207  1.0
  Zr  Zr467  1  0.80289498  0.86076967  0.36302207  1.0
  Zr  Zr468  1  0.27245307  0.30589700  0.41093379  1.0
  Zr  Zr469  1  0.27245307  0.63923033  0.41093379  1.0
  Zr  Zr470  1  0.27245307  0.97256367  0.41093379  1.0
  Zr  Zr471  1  0.60578640  0.30589700  0.41093379  1.0
  Zr  Zr472  1  0.60578640  0.63923033  0.41093379  1.0
  Zr  Zr473  1  0.60578640  0.97256367  0.41093379  1.0
  Zr  Zr474  1  0.93911974  0.30589700  0.41093379  1.0
  Zr  Zr475  1  0.93911974  0.63923033  0.41093379  1.0
  Zr  Zr476  1  0.93911974  0.97256367  0.41093379  1.0
  Zr  Zr477  1  0.29626260  0.13923033  0.33950521  1.0
  Zr  Zr478  1  0.29626260  0.47256367  0.33950521  1.0
  Zr  Zr479  1  0.29626260  0.80589700  0.33950521  1.0
  Zr  Zr480  1  0.62959593  0.13923033  0.33950521  1.0
  Zr  Zr481  1  0.62959593  0.47256367  0.33950521  1.0
  Zr  Zr482  1  0.62959593  0.80589700  0.33950521  1.0
  Zr  Zr483  1  0.96292926  0.13923033  0.33950521  1.0
  Zr  Zr484  1  0.96292926  0.47256367  0.33950521  1.0
  Zr  Zr485  1  0.96292926  0.80589700  0.33950521  1.0
