# generated using pymatgen
data_Zr2Ni7
_symmetry_space_group_name_H-M   'P 1'
_cell_length_a   22.01280122
_cell_length_b   31.07850779
_cell_length_c   28.14736801
_cell_angle_alpha   99.66559441
_cell_angle_beta   94.73955126
_cell_angle_gamma   91.20388952
_symmetry_Int_Tables_number   1
_chemical_formula_structural   Zr2Ni7
_chemical_formula_sum   'Zr144 Ni504'
_cell_volume   18906.12519395
_cell_formula_units_Z   72
loop_
 _symmetry_equiv_pos_site_id
 _symmetry_equiv_pos_as_xyz
  1  'x, y, z'
loop_
 _atom_site_type_symbol
 _atom_site_label
 _atom_site_symmetry_multiplicity
 _atom_site_fract_x
 _atom_site_fract_y
 _atom_site_fract_z
 _atom_site_occupancy
  Ni  Ni0  1  0.32504789  0.15838122  0.07504789  1.0
  Ni  Ni1  1  0.32504789  0.49171456  0.07504789  1.0
  Ni  Ni2  1  0.32504789  0.82504789  0.07504789  1.0
  Ni  Ni3  1  0.65838122  0.15838122  0.07504789  1.0
  Ni  Ni4  1  0.65838122  0.49171456  0.07504789  1.0
  Ni  Ni5  1  0.65838122  0.82504789  0.07504789  1.0
  Ni  Ni6  1  0.99171456  0.15838122  0.07504789  1.0
  Ni  Ni7  1  0.99171456  0.49171456  0.07504789  1.0
  Ni  Ni8  1  0.99171456  0.82504789  0.07504789  1.0
  Ni  Ni9  1  0.10282567  0.26949233  0.01949233  1.0
  Ni  Ni10  1  0.10282567  0.60282567  0.01949233  1.0
  Ni  Ni11  1  0.10282567  0.93615900  0.01949233  1.0
  Ni  Ni12  1  0.43615900  0.26949233  0.01949233  1.0
  Ni  Ni13  1  0.43615900  0.60282567  0.01949233  1.0
  Ni  Ni14  1  0.43615900  0.93615900  0.01949233  1.0
  Ni  Ni15  1  0.76949233  0.26949233  0.01949233  1.0
  Ni  Ni16  1  0.76949233  0.60282567  0.01949233  1.0
  Ni  Ni17  1  0.76949233  0.93615900  0.01949233  1.0
  Ni  Ni18  1  0.32294767  0.27081133  0.01227033  1.0
  Ni  Ni19  1  0.32294767  0.60414467  0.01227033  1.0
  Ni  Ni20  1  0.32294767  0.93747800  0.01227033  1.0
  Ni  Ni21  1  0.65628100  0.27081133  0.01227033  1.0
  Ni  Ni22  1  0.65628100  0.60414467  0.01227033  1.0
  Ni  Ni23  1  0.65628100  0.93747800  0.01227033  1.0
  Ni  Ni24  1  0.98961433  0.27081133  0.01227033  1.0
  Ni  Ni25  1  0.98961433  0.60414467  0.01227033  1.0
  Ni  Ni26  1  0.98961433  0.93747800  0.01227033  1.0
  Ni  Ni27  1  0.21183656  0.15970022  0.06782589  1.0
  Ni  Ni28  1  0.21183656  0.49303356  0.06782589  1.0
  Ni  Ni29  1  0.21183656  0.82636689  0.06782589  1.0
  Ni  Ni30  1  0.54516989  0.15970022  0.06782589  1.0
  Ni  Ni31  1  0.54516989  0.49303356  0.06782589  1.0
  Ni  Ni32  1  0.54516989  0.82636689  0.06782589  1.0
  Ni  Ni33  1  0.87850322  0.15970022  0.06782589  1.0
  Ni  Ni34  1  0.87850322  0.49303356  0.06782589  1.0
  Ni  Ni35  1  0.87850322  0.82636689  0.06782589  1.0
  Ni  Ni36  1  0.14232144  0.19445778  0.00828544  1.0
  Ni  Ni37  1  0.14232144  0.52779111  0.00828544  1.0
  Ni  Ni38  1  0.14232144  0.86112444  0.00828544  1.0
  Ni  Ni39  1  0.47565478  0.19445778  0.00828544  1.0
  Ni  Ni40  1  0.47565478  0.52779111  0.00828544  1.0
  Ni  Ni41  1  0.47565478  0.86112444  0.00828544  1.0
  Ni  Ni42  1  0.80898811  0.19445778  0.00828544  1.0
  Ni  Ni43  1  0.80898811  0.52779111  0.00828544  1.0
  Ni  Ni44  1  0.80898811  0.86112444  0.00828544  1.0
  Ni  Ni45  1  0.03121033  0.08334667  0.06384100  1.0
  Ni  Ni46  1  0.03121033  0.41668000  0.06384100  1.0
  Ni  Ni47  1  0.03121033  0.75001333  0.06384100  1.0
  Ni  Ni48  1  0.36454367  0.08334667  0.06384100  1.0
  Ni  Ni49  1  0.36454367  0.41668000  0.06384100  1.0
  Ni  Ni50  1  0.36454367  0.75001333  0.06384100  1.0
  Ni  Ni51  1  0.69787700  0.08334667  0.06384100  1.0
  Ni  Ni52  1  0.69787700  0.41668000  0.06384100  1.0
  Ni  Ni53  1  0.69787700  0.75001333  0.06384100  1.0
  Ni  Ni54  1  0.10492589  0.15706222  0.08226989  1.0
  Ni  Ni55  1  0.10492589  0.49039556  0.08226989  1.0
  Ni  Ni56  1  0.10492589  0.82372889  0.08226989  1.0
  Ni  Ni57  1  0.43825922  0.15706222  0.08226989  1.0
  Ni  Ni58  1  0.43825922  0.49039556  0.08226989  1.0
  Ni  Ni59  1  0.43825922  0.82372889  0.08226989  1.0
  Ni  Ni60  1  0.77159256  0.15706222  0.08226989  1.0
  Ni  Ni61  1  0.77159256  0.49039556  0.08226989  1.0
  Ni  Ni62  1  0.77159256  0.82372889  0.08226989  1.0
  Ni  Ni63  1  0.21603700  0.26817333  0.02671433  1.0
  Ni  Ni64  1  0.21603700  0.60150667  0.02671433  1.0
  Ni  Ni65  1  0.21603700  0.93484000  0.02671433  1.0
  Ni  Ni66  1  0.54937033  0.26817333  0.02671433  1.0
  Ni  Ni67  1  0.54937033  0.60150667  0.02671433  1.0
  Ni  Ni68  1  0.54937033  0.93484000  0.02671433  1.0
  Ni  Ni69  1  0.88270367  0.26817333  0.02671433  1.0
  Ni  Ni70  1  0.88270367  0.60150667  0.02671433  1.0
  Ni  Ni71  1  0.88270367  0.93484000  0.02671433  1.0
  Ni  Ni72  1  0.28555211  0.23341578  0.08625478  1.0
  Ni  Ni73  1  0.28555211  0.56674911  0.08625478  1.0
  Ni  Ni74  1  0.28555211  0.90008244  0.08625478  1.0
  Ni  Ni75  1  0.61888544  0.23341578  0.08625478  1.0
  Ni  Ni76  1  0.61888544  0.56674911  0.08625478  1.0
  Ni  Ni77  1  0.61888544  0.90008244  0.08625478  1.0
  Ni  Ni78  1  0.95221878  0.23341578  0.08625478  1.0
  Ni  Ni79  1  0.95221878  0.56674911  0.08625478  1.0
  Ni  Ni80  1  0.95221878  0.90008244  0.08625478  1.0
  Ni  Ni81  1  0.06332989  0.01119356  0.03069922  1.0
  Ni  Ni82  1  0.06332989  0.34452689  0.03069922  1.0
  Ni  Ni83  1  0.06332989  0.67786022  0.03069922  1.0
  Ni  Ni84  1  0.39666322  0.01119356  0.03069922  1.0
  Ni  Ni85  1  0.39666322  0.34452689  0.03069922  1.0
  Ni  Ni86  1  0.39666322  0.67786022  0.03069922  1.0
  Ni  Ni87  1  0.72999656  0.01119356  0.03069922  1.0
  Ni  Ni88  1  0.72999656  0.34452689  0.03069922  1.0
  Ni  Ni89  1  0.72999656  0.67786022  0.03069922  1.0
  Ni  Ni90  1  0.04727011  0.21393678  0.04727011  1.0
  Ni  Ni91  1  0.04727011  0.54727011  0.04727011  1.0
  Ni  Ni92  1  0.04727011  0.88060344  0.04727011  1.0
  Ni  Ni93  1  0.38060344  0.21393678  0.04727011  1.0
  Ni  Ni94  1  0.38060344  0.54727011  0.04727011  1.0
  Ni  Ni95  1  0.38060344  0.88060344  0.04727011  1.0
  Ni  Ni96  1  0.71393678  0.21393678  0.04727011  1.0
  Ni  Ni97  1  0.71393678  0.54727011  0.04727011  1.0
  Ni  Ni98  1  0.71393678  0.88060344  0.04727011  1.0
  Ni  Ni99  1  0.26949233  0.10282567  0.10282567  1.0
  Ni  Ni100  1  0.26949233  0.43615900  0.10282567  1.0
  Ni  Ni101  1  0.26949233  0.76949233  0.10282567  1.0
  Ni  Ni102  1  0.60282567  0.10282567  0.10282567  1.0
  Ni  Ni103  1  0.60282567  0.43615900  0.10282567  1.0
  Ni  Ni104  1  0.60282567  0.76949233  0.10282567  1.0
  Ni  Ni105  1  0.93615900  0.10282567  0.10282567  1.0
  Ni  Ni106  1  0.93615900  0.43615900  0.10282567  1.0
  Ni  Ni107  1  0.93615900  0.76949233  0.10282567  1.0
  Ni  Ni108  1  0.26949233  0.10282567  0.01949233  1.0
  Ni  Ni109  1  0.26949233  0.43615900  0.01949233  1.0
  Ni  Ni110  1  0.26949233  0.76949233  0.01949233  1.0
  Ni  Ni111  1  0.60282567  0.10282567  0.01949233  1.0
  Ni  Ni112  1  0.60282567  0.43615900  0.01949233  1.0
  Ni  Ni113  1  0.60282567  0.76949233  0.01949233  1.0
  Ni  Ni114  1  0.93615900  0.10282567  0.01949233  1.0
  Ni  Ni115  1  0.93615900  0.43615900  0.01949233  1.0
  Ni  Ni116  1  0.93615900  0.76949233  0.01949233  1.0
  Ni  Ni117  1  0.15838122  0.32504789  0.07504789  1.0
  Ni  Ni118  1  0.15838122  0.65838122  0.07504789  1.0
  Ni  Ni119  1  0.15838122  0.99171456  0.07504789  1.0
  Ni  Ni120  1  0.49171456  0.32504789  0.07504789  1.0
  Ni  Ni121  1  0.49171456  0.65838122  0.07504789  1.0
  Ni  Ni122  1  0.49171456  0.99171456  0.07504789  1.0
  Ni  Ni123  1  0.82504789  0.32504789  0.07504789  1.0
  Ni  Ni124  1  0.82504789  0.65838122  0.07504789  1.0
  Ni  Ni125  1  0.82504789  0.99171456  0.07504789  1.0
  Ni  Ni126  1  0.10282567  0.26949233  0.18615900  1.0
  Ni  Ni127  1  0.10282567  0.60282567  0.18615900  1.0
  Ni  Ni128  1  0.10282567  0.93615900  0.18615900  1.0
  Ni  Ni129  1  0.43615900  0.26949233  0.18615900  1.0
  Ni  Ni130  1  0.43615900  0.60282567  0.18615900  1.0
  Ni  Ni131  1  0.43615900  0.93615900  0.18615900  1.0
  Ni  Ni132  1  0.76949233  0.26949233  0.18615900  1.0
  Ni  Ni133  1  0.76949233  0.60282567  0.18615900  1.0
  Ni  Ni134  1  0.76949233  0.93615900  0.18615900  1.0
  Ni  Ni135  1  0.21393678  0.04727011  0.13060344  1.0
  Ni  Ni136  1  0.21393678  0.38060344  0.13060344  1.0
  Ni  Ni137  1  0.21393678  0.71393678  0.13060344  1.0
  Ni  Ni138  1  0.54727011  0.04727011  0.13060344  1.0
  Ni  Ni139  1  0.54727011  0.38060344  0.13060344  1.0
  Ni  Ni140  1  0.54727011  0.71393678  0.13060344  1.0
  Ni  Ni141  1  0.88060344  0.04727011  0.13060344  1.0
  Ni  Ni142  1  0.88060344  0.38060344  0.13060344  1.0
  Ni  Ni143  1  0.88060344  0.71393678  0.13060344  1.0
  Ni  Ni144  1  0.10072544  0.04858911  0.12338144  1.0
  Ni  Ni145  1  0.10072544  0.38192244  0.12338144  1.0
  Ni  Ni146  1  0.10072544  0.71525578  0.12338144  1.0
  Ni  Ni147  1  0.43405878  0.04858911  0.12338144  1.0
  Ni  Ni148  1  0.43405878  0.38192244  0.12338144  1.0
  Ni  Ni149  1  0.43405878  0.71525578  0.12338144  1.0
  Ni  Ni150  1  0.76739211  0.04858911  0.12338144  1.0
  Ni  Ni151  1  0.76739211  0.38192244  0.12338144  1.0
  Ni  Ni152  1  0.76739211  0.71525578  0.12338144  1.0
  Ni  Ni153  1  0.32294767  0.27081133  0.17893700  1.0
  Ni  Ni154  1  0.32294767  0.60414467  0.17893700  1.0
  Ni  Ni155  1  0.32294767  0.93747800  0.17893700  1.0
  Ni  Ni156  1  0.65628100  0.27081133  0.17893700  1.0
  Ni  Ni157  1  0.65628100  0.60414467  0.17893700  1.0
  Ni  Ni158  1  0.65628100  0.93747800  0.17893700  1.0
  Ni  Ni159  1  0.98961433  0.27081133  0.17893700  1.0
  Ni  Ni160  1  0.98961433  0.60414467  0.17893700  1.0
  Ni  Ni161  1  0.98961433  0.93747800  0.17893700  1.0
  Ni  Ni162  1  0.25343256  0.30556889  0.11939656  1.0
  Ni  Ni163  1  0.25343256  0.63890222  0.11939656  1.0
  Ni  Ni164  1  0.25343256  0.97223556  0.11939656  1.0
  Ni  Ni165  1  0.58676589  0.30556889  0.11939656  1.0
  Ni  Ni166  1  0.58676589  0.63890222  0.11939656  1.0
  Ni  Ni167  1  0.58676589  0.97223556  0.11939656  1.0
  Ni  Ni168  1  0.92009922  0.30556889  0.11939656  1.0
  Ni  Ni169  1  0.92009922  0.63890222  0.11939656  1.0
  Ni  Ni170  1  0.92009922  0.97223556  0.11939656  1.0
  Ni  Ni171  1  0.14232144  0.19445778  0.17495211  1.0
  Ni  Ni172  1  0.14232144  0.52779111  0.17495211  1.0
  Ni  Ni173  1  0.14232144  0.86112444  0.17495211  1.0
  Ni  Ni174  1  0.47565478  0.19445778  0.17495211  1.0
  Ni  Ni175  1  0.47565478  0.52779111  0.17495211  1.0
  Ni  Ni176  1  0.47565478  0.86112444  0.17495211  1.0
  Ni  Ni177  1  0.80898811  0.19445778  0.17495211  1.0
  Ni  Ni178  1  0.80898811  0.52779111  0.17495211  1.0
  Ni  Ni179  1  0.80898811  0.86112444  0.17495211  1.0
  Ni  Ni180  1  0.21603700  0.26817333  0.19338100  1.0
  Ni  Ni181  1  0.21603700  0.60150667  0.19338100  1.0
  Ni  Ni182  1  0.21603700  0.93484000  0.19338100  1.0
  Ni  Ni183  1  0.54937033  0.26817333  0.19338100  1.0
  Ni  Ni184  1  0.54937033  0.60150667  0.19338100  1.0
  Ni  Ni185  1  0.54937033  0.93484000  0.19338100  1.0
  Ni  Ni186  1  0.88270367  0.26817333  0.19338100  1.0
  Ni  Ni187  1  0.88270367  0.60150667  0.19338100  1.0
  Ni  Ni188  1  0.88270367  0.93484000  0.19338100  1.0
  Ni  Ni189  1  0.32714811  0.04595111  0.13782544  1.0
  Ni  Ni190  1  0.32714811  0.37928444  0.13782544  1.0
  Ni  Ni191  1  0.32714811  0.71261778  0.13782544  1.0
  Ni  Ni192  1  0.66048144  0.04595111  0.13782544  1.0
  Ni  Ni193  1  0.66048144  0.37928444  0.13782544  1.0
  Ni  Ni194  1  0.66048144  0.71261778  0.13782544  1.0
  Ni  Ni195  1  0.99381478  0.04595111  0.13782544  1.0
  Ni  Ni196  1  0.99381478  0.37928444  0.13782544  1.0
  Ni  Ni197  1  0.99381478  0.71261778  0.13782544  1.0
  Ni  Ni198  1  0.06332989  0.01119356  0.19736589  1.0
  Ni  Ni199  1  0.06332989  0.34452689  0.19736589  1.0
  Ni  Ni200  1  0.06332989  0.67786022  0.19736589  1.0
  Ni  Ni201  1  0.39666322  0.01119356  0.19736589  1.0
  Ni  Ni202  1  0.39666322  0.34452689  0.19736589  1.0
  Ni  Ni203  1  0.39666322  0.67786022  0.19736589  1.0
  Ni  Ni204  1  0.72999656  0.01119356  0.19736589  1.0
  Ni  Ni205  1  0.72999656  0.34452689  0.19736589  1.0
  Ni  Ni206  1  0.72999656  0.67786022  0.19736589  1.0
  Ni  Ni207  1  0.17444100  0.12230467  0.14181033  1.0
  Ni  Ni208  1  0.17444100  0.45563800  0.14181033  1.0
  Ni  Ni209  1  0.17444100  0.78897133  0.14181033  1.0
  Ni  Ni210  1  0.50777433  0.12230467  0.14181033  1.0
  Ni  Ni211  1  0.50777433  0.45563800  0.14181033  1.0
  Ni  Ni212  1  0.50777433  0.78897133  0.14181033  1.0
  Ni  Ni213  1  0.84110767  0.12230467  0.14181033  1.0
  Ni  Ni214  1  0.84110767  0.45563800  0.14181033  1.0
  Ni  Ni215  1  0.84110767  0.78897133  0.14181033  1.0
  Ni  Ni216  1  0.15838122  0.32504789  0.15838122  1.0
  Ni  Ni217  1  0.15838122  0.65838122  0.15838122  1.0
  Ni  Ni218  1  0.15838122  0.99171456  0.15838122  1.0
  Ni  Ni219  1  0.49171456  0.32504789  0.15838122  1.0
  Ni  Ni220  1  0.49171456  0.65838122  0.15838122  1.0
  Ni  Ni221  1  0.49171456  0.99171456  0.15838122  1.0
  Ni  Ni222  1  0.82504789  0.32504789  0.15838122  1.0
  Ni  Ni223  1  0.82504789  0.65838122  0.15838122  1.0
  Ni  Ni224  1  0.82504789  0.99171456  0.15838122  1.0
  Ni  Ni225  1  0.04727011  0.21393678  0.21393678  1.0
  Ni  Ni226  1  0.04727011  0.54727011  0.21393678  1.0
  Ni  Ni227  1  0.04727011  0.88060344  0.21393678  1.0
  Ni  Ni228  1  0.38060344  0.21393678  0.21393678  1.0
  Ni  Ni229  1  0.38060344  0.54727011  0.21393678  1.0
  Ni  Ni230  1  0.38060344  0.88060344  0.21393678  1.0
  Ni  Ni231  1  0.71393678  0.21393678  0.21393678  1.0
  Ni  Ni232  1  0.71393678  0.54727011  0.21393678  1.0
  Ni  Ni233  1  0.71393678  0.88060344  0.21393678  1.0
  Ni  Ni234  1  0.04727011  0.21393678  0.13060344  1.0
  Ni  Ni235  1  0.04727011  0.54727011  0.13060344  1.0
  Ni  Ni236  1  0.04727011  0.88060344  0.13060344  1.0
  Ni  Ni237  1  0.38060344  0.21393678  0.13060344  1.0
  Ni  Ni238  1  0.38060344  0.54727011  0.13060344  1.0
  Ni  Ni239  1  0.38060344  0.88060344  0.13060344  1.0
  Ni  Ni240  1  0.71393678  0.21393678  0.13060344  1.0
  Ni  Ni241  1  0.71393678  0.54727011  0.13060344  1.0
  Ni  Ni242  1  0.71393678  0.88060344  0.13060344  1.0
  Ni  Ni243  1  0.26949233  0.10282567  0.18615900  1.0
  Ni  Ni244  1  0.26949233  0.43615900  0.18615900  1.0
  Ni  Ni245  1  0.26949233  0.76949233  0.18615900  1.0
  Ni  Ni246  1  0.60282567  0.10282567  0.18615900  1.0
  Ni  Ni247  1  0.60282567  0.43615900  0.18615900  1.0
  Ni  Ni248  1  0.60282567  0.76949233  0.18615900  1.0
  Ni  Ni249  1  0.93615900  0.10282567  0.18615900  1.0
  Ni  Ni250  1  0.93615900  0.43615900  0.18615900  1.0
  Ni  Ni251  1  0.93615900  0.76949233  0.18615900  1.0
  Ni  Ni252  1  0.21393678  0.04727011  0.29727011  1.0
  Ni  Ni253  1  0.21393678  0.38060344  0.29727011  1.0
  Ni  Ni254  1  0.21393678  0.71393678  0.29727011  1.0
  Ni  Ni255  1  0.54727011  0.04727011  0.29727011  1.0
  Ni  Ni256  1  0.54727011  0.38060344  0.29727011  1.0
  Ni  Ni257  1  0.54727011  0.71393678  0.29727011  1.0
  Ni  Ni258  1  0.88060344  0.04727011  0.29727011  1.0
  Ni  Ni259  1  0.88060344  0.38060344  0.29727011  1.0
  Ni  Ni260  1  0.88060344  0.71393678  0.29727011  1.0
  Ni  Ni261  1  0.32504789  0.15838122  0.24171456  1.0
  Ni  Ni262  1  0.32504789  0.49171456  0.24171456  1.0
  Ni  Ni263  1  0.32504789  0.82504789  0.24171456  1.0
  Ni  Ni264  1  0.65838122  0.15838122  0.24171456  1.0
  Ni  Ni265  1  0.65838122  0.49171456  0.24171456  1.0
  Ni  Ni266  1  0.65838122  0.82504789  0.24171456  1.0
  Ni  Ni267  1  0.99171456  0.15838122  0.24171456  1.0
  Ni  Ni268  1  0.99171456  0.49171456  0.24171456  1.0
  Ni  Ni269  1  0.99171456  0.82504789  0.24171456  1.0
  Ni  Ni270  1  0.21183656  0.15970022  0.23449256  1.0
  Ni  Ni271  1  0.21183656  0.49303356  0.23449256  1.0
  Ni  Ni272  1  0.21183656  0.82636689  0.23449256  1.0
  Ni  Ni273  1  0.54516989  0.15970022  0.23449256  1.0
  Ni  Ni274  1  0.54516989  0.49303356  0.23449256  1.0
  Ni  Ni275  1  0.54516989  0.82636689  0.23449256  1.0
  Ni  Ni276  1  0.87850322  0.15970022  0.23449256  1.0
  Ni  Ni277  1  0.87850322  0.49303356  0.23449256  1.0
  Ni  Ni278  1  0.87850322  0.82636689  0.23449256  1.0
  Ni  Ni279  1  0.10072544  0.04858911  0.29004811  1.0
  Ni  Ni280  1  0.10072544  0.38192244  0.29004811  1.0
  Ni  Ni281  1  0.10072544  0.71525578  0.29004811  1.0
  Ni  Ni282  1  0.43405878  0.04858911  0.29004811  1.0
  Ni  Ni283  1  0.43405878  0.38192244  0.29004811  1.0
  Ni  Ni284  1  0.43405878  0.71525578  0.29004811  1.0
  Ni  Ni285  1  0.76739211  0.04858911  0.29004811  1.0
  Ni  Ni286  1  0.76739211  0.38192244  0.29004811  1.0
  Ni  Ni287  1  0.76739211  0.71525578  0.29004811  1.0
  Ni  Ni288  1  0.03121033  0.08334667  0.23050767  1.0
  Ni  Ni289  1  0.03121033  0.41668000  0.23050767  1.0
  Ni  Ni290  1  0.03121033  0.75001333  0.23050767  1.0
  Ni  Ni291  1  0.36454367  0.08334667  0.23050767  1.0
  Ni  Ni292  1  0.36454367  0.41668000  0.23050767  1.0
  Ni  Ni293  1  0.36454367  0.75001333  0.23050767  1.0
  Ni  Ni294  1  0.69787700  0.08334667  0.23050767  1.0
  Ni  Ni295  1  0.69787700  0.41668000  0.23050767  1.0
  Ni  Ni296  1  0.69787700  0.75001333  0.23050767  1.0
  Ni  Ni297  1  0.25343256  0.30556889  0.28606322  1.0
  Ni  Ni298  1  0.25343256  0.63890222  0.28606322  1.0
  Ni  Ni299  1  0.25343256  0.97223556  0.28606322  1.0
  Ni  Ni300  1  0.58676589  0.30556889  0.28606322  1.0
  Ni  Ni301  1  0.58676589  0.63890222  0.28606322  1.0
  Ni  Ni302  1  0.58676589  0.97223556  0.28606322  1.0
  Ni  Ni303  1  0.92009922  0.30556889  0.28606322  1.0
  Ni  Ni304  1  0.92009922  0.63890222  0.28606322  1.0
  Ni  Ni305  1  0.92009922  0.97223556  0.28606322  1.0
  Ni  Ni306  1  0.32714811  0.04595111  0.30449211  1.0
  Ni  Ni307  1  0.32714811  0.37928444  0.30449211  1.0
  Ni  Ni308  1  0.32714811  0.71261778  0.30449211  1.0
  Ni  Ni309  1  0.66048144  0.04595111  0.30449211  1.0
  Ni  Ni310  1  0.66048144  0.37928444  0.30449211  1.0
  Ni  Ni311  1  0.66048144  0.71261778  0.30449211  1.0
  Ni  Ni312  1  0.99381478  0.04595111  0.30449211  1.0
  Ni  Ni313  1  0.99381478  0.37928444  0.30449211  1.0
  Ni  Ni314  1  0.99381478  0.71261778  0.30449211  1.0
  Ni  Ni315  1  0.10492589  0.15706222  0.24893656  1.0
  Ni  Ni316  1  0.10492589  0.49039556  0.24893656  1.0
  Ni  Ni317  1  0.10492589  0.82372889  0.24893656  1.0
  Ni  Ni318  1  0.43825922  0.15706222  0.24893656  1.0
  Ni  Ni319  1  0.43825922  0.49039556  0.24893656  1.0
  Ni  Ni320  1  0.43825922  0.82372889  0.24893656  1.0
  Ni  Ni321  1  0.77159256  0.15706222  0.24893656  1.0
  Ni  Ni322  1  0.77159256  0.49039556  0.24893656  1.0
  Ni  Ni323  1  0.77159256  0.82372889  0.24893656  1.0
  Ni  Ni324  1  0.17444100  0.12230467  0.30847700  1.0
  Ni  Ni325  1  0.17444100  0.45563800  0.30847700  1.0
  Ni  Ni326  1  0.17444100  0.78897133  0.30847700  1.0
  Ni  Ni327  1  0.50777433  0.12230467  0.30847700  1.0
  Ni  Ni328  1  0.50777433  0.45563800  0.30847700  1.0
  Ni  Ni329  1  0.50777433  0.78897133  0.30847700  1.0
  Ni  Ni330  1  0.84110767  0.12230467  0.30847700  1.0
  Ni  Ni331  1  0.84110767  0.45563800  0.30847700  1.0
  Ni  Ni332  1  0.84110767  0.78897133  0.30847700  1.0
  Ni  Ni333  1  0.28555211  0.23341578  0.25292144  1.0
  Ni  Ni334  1  0.28555211  0.56674911  0.25292144  1.0
  Ni  Ni335  1  0.28555211  0.90008244  0.25292144  1.0
  Ni  Ni336  1  0.61888544  0.23341578  0.25292144  1.0
  Ni  Ni337  1  0.61888544  0.56674911  0.25292144  1.0
  Ni  Ni338  1  0.61888544  0.90008244  0.25292144  1.0
  Ni  Ni339  1  0.95221878  0.23341578  0.25292144  1.0
  Ni  Ni340  1  0.95221878  0.56674911  0.25292144  1.0
  Ni  Ni341  1  0.95221878  0.90008244  0.25292144  1.0
  Ni  Ni342  1  0.26949233  0.10282567  0.26949233  1.0
  Ni  Ni343  1  0.26949233  0.43615900  0.26949233  1.0
  Ni  Ni344  1  0.26949233  0.76949233  0.26949233  1.0
  Ni  Ni345  1  0.60282567  0.10282567  0.26949233  1.0
  Ni  Ni346  1  0.60282567  0.43615900  0.26949233  1.0
  Ni  Ni347  1  0.60282567  0.76949233  0.26949233  1.0
  Ni  Ni348  1  0.93615900  0.10282567  0.26949233  1.0
  Ni  Ni349  1  0.93615900  0.43615900  0.26949233  1.0
  Ni  Ni350  1  0.93615900  0.76949233  0.26949233  1.0
  Ni  Ni351  1  0.15838122  0.32504789  0.32504789  1.0
  Ni  Ni352  1  0.15838122  0.65838122  0.32504789  1.0
  Ni  Ni353  1  0.15838122  0.99171456  0.32504789  1.0
  Ni  Ni354  1  0.49171456  0.32504789  0.32504789  1.0
  Ni  Ni355  1  0.49171456  0.65838122  0.32504789  1.0
  Ni  Ni356  1  0.49171456  0.99171456  0.32504789  1.0
  Ni  Ni357  1  0.82504789  0.32504789  0.32504789  1.0
  Ni  Ni358  1  0.82504789  0.65838122  0.32504789  1.0
  Ni  Ni359  1  0.82504789  0.99171456  0.32504789  1.0
  Ni  Ni360  1  0.15838122  0.32504789  0.24171456  1.0
  Ni  Ni361  1  0.15838122  0.65838122  0.24171456  1.0
  Ni  Ni362  1  0.15838122  0.99171456  0.24171456  1.0
  Ni  Ni363  1  0.49171456  0.32504789  0.24171456  1.0
  Ni  Ni364  1  0.49171456  0.65838122  0.24171456  1.0
  Ni  Ni365  1  0.49171456  0.99171456  0.24171456  1.0
  Ni  Ni366  1  0.82504789  0.32504789  0.24171456  1.0
  Ni  Ni367  1  0.82504789  0.65838122  0.24171456  1.0
  Ni  Ni368  1  0.82504789  0.99171456  0.24171456  1.0
  Ni  Ni369  1  0.04727011  0.21393678  0.29727011  1.0
  Ni  Ni370  1  0.04727011  0.54727011  0.29727011  1.0
  Ni  Ni371  1  0.04727011  0.88060344  0.29727011  1.0
  Ni  Ni372  1  0.38060344  0.21393678  0.29727011  1.0
  Ni  Ni373  1  0.38060344  0.54727011  0.29727011  1.0
  Ni  Ni374  1  0.38060344  0.88060344  0.29727011  1.0
  Ni  Ni375  1  0.71393678  0.21393678  0.29727011  1.0
  Ni  Ni376  1  0.71393678  0.54727011  0.29727011  1.0
  Ni  Ni377  1  0.71393678  0.88060344  0.29727011  1.0
  Ni  Ni378  1  0.32504789  0.15838122  0.40838122  1.0
  Ni  Ni379  1  0.32504789  0.49171456  0.40838122  1.0
  Ni  Ni380  1  0.32504789  0.82504789  0.40838122  1.0
  Ni  Ni381  1  0.65838122  0.15838122  0.40838122  1.0
  Ni  Ni382  1  0.65838122  0.49171456  0.40838122  1.0
  Ni  Ni383  1  0.65838122  0.82504789  0.40838122  1.0
  Ni  Ni384  1  0.99171456  0.15838122  0.40838122  1.0
  Ni  Ni385  1  0.99171456  0.49171456  0.40838122  1.0
  Ni  Ni386  1  0.99171456  0.82504789  0.40838122  1.0
  Ni  Ni387  1  0.10282567  0.26949233  0.35282567  1.0
  Ni  Ni388  1  0.10282567  0.60282567  0.35282567  1.0
  Ni  Ni389  1  0.10282567  0.93615900  0.35282567  1.0
  Ni  Ni390  1  0.43615900  0.26949233  0.35282567  1.0
  Ni  Ni391  1  0.43615900  0.60282567  0.35282567  1.0
  Ni  Ni392  1  0.43615900  0.93615900  0.35282567  1.0
  Ni  Ni393  1  0.76949233  0.26949233  0.35282567  1.0
  Ni  Ni394  1  0.76949233  0.60282567  0.35282567  1.0
  Ni  Ni395  1  0.76949233  0.93615900  0.35282567  1.0
  Ni  Ni396  1  0.32294767  0.27081133  0.34560367  1.0
  Ni  Ni397  1  0.32294767  0.60414467  0.34560367  1.0
  Ni  Ni398  1  0.32294767  0.93747800  0.34560367  1.0
  Ni  Ni399  1  0.65628100  0.27081133  0.34560367  1.0
  Ni  Ni400  1  0.65628100  0.60414467  0.34560367  1.0
  Ni  Ni401  1  0.65628100  0.93747800  0.34560367  1.0
  Ni  Ni402  1  0.98961433  0.27081133  0.34560367  1.0
  Ni  Ni403  1  0.98961433  0.60414467  0.34560367  1.0
  Ni  Ni404  1  0.98961433  0.93747800  0.34560367  1.0
  Ni  Ni405  1  0.21183656  0.15970022  0.40115922  1.0
  Ni  Ni406  1  0.21183656  0.49303356  0.40115922  1.0
  Ni  Ni407  1  0.21183656  0.82636689  0.40115922  1.0
  Ni  Ni408  1  0.54516989  0.15970022  0.40115922  1.0
  Ni  Ni409  1  0.54516989  0.49303356  0.40115922  1.0
  Ni  Ni410  1  0.54516989  0.82636689  0.40115922  1.0
  Ni  Ni411  1  0.87850322  0.15970022  0.40115922  1.0
  Ni  Ni412  1  0.87850322  0.49303356  0.40115922  1.0
  Ni  Ni413  1  0.87850322  0.82636689  0.40115922  1.0
  Ni  Ni414  1  0.14232144  0.19445778  0.34161878  1.0
  Ni  Ni415  1  0.14232144  0.52779111  0.34161878  1.0
  Ni  Ni416  1  0.14232144  0.86112444  0.34161878  1.0
  Ni  Ni417  1  0.47565478  0.19445778  0.34161878  1.0
  Ni  Ni418  1  0.47565478  0.52779111  0.34161878  1.0
  Ni  Ni419  1  0.47565478  0.86112444  0.34161878  1.0
  Ni  Ni420  1  0.80898811  0.19445778  0.34161878  1.0
  Ni  Ni421  1  0.80898811  0.52779111  0.34161878  1.0
  Ni  Ni422  1  0.80898811  0.86112444  0.34161878  1.0
  Ni  Ni423  1  0.03121033  0.08334667  0.39717433  1.0
  Ni  Ni424  1  0.03121033  0.41668000  0.39717433  1.0
  Ni  Ni425  1  0.03121033  0.75001333  0.39717433  1.0
  Ni  Ni426  1  0.36454367  0.08334667  0.39717433  1.0
  Ni  Ni427  1  0.36454367  0.41668000  0.39717433  1.0
  Ni  Ni428  1  0.36454367  0.75001333  0.39717433  1.0
  Ni  Ni429  1  0.69787700  0.08334667  0.39717433  1.0
  Ni  Ni430  1  0.69787700  0.41668000  0.39717433  1.0
  Ni  Ni431  1  0.69787700  0.75001333  0.39717433  1.0
  Ni  Ni432  1  0.10492589  0.15706222  0.41560322  1.0
  Ni  Ni433  1  0.10492589  0.49039556  0.41560322  1.0
  Ni  Ni434  1  0.10492589  0.82372889  0.41560322  1.0
  Ni  Ni435  1  0.43825922  0.15706222  0.41560322  1.0
  Ni  Ni436  1  0.43825922  0.49039556  0.41560322  1.0
  Ni  Ni437  1  0.43825922  0.82372889  0.41560322  1.0
  Ni  Ni438  1  0.77159256  0.15706222  0.41560322  1.0
  Ni  Ni439  1  0.77159256  0.49039556  0.41560322  1.0
  Ni  Ni440  1  0.77159256  0.82372889  0.41560322  1.0
  Ni  Ni441  1  0.21603700  0.26817333  0.36004767  1.0
  Ni  Ni442  1  0.21603700  0.60150667  0.36004767  1.0
  Ni  Ni443  1  0.21603700  0.93484000  0.36004767  1.0
  Ni  Ni444  1  0.54937033  0.26817333  0.36004767  1.0
  Ni  Ni445  1  0.54937033  0.60150667  0.36004767  1.0
  Ni  Ni446  1  0.54937033  0.93484000  0.36004767  1.0
  Ni  Ni447  1  0.88270367  0.26817333  0.36004767  1.0
  Ni  Ni448  1  0.88270367  0.60150667  0.36004767  1.0
  Ni  Ni449  1  0.88270367  0.93484000  0.36004767  1.0
  Ni  Ni450  1  0.28555211  0.23341578  0.41958811  1.0
  Ni  Ni451  1  0.28555211  0.56674911  0.41958811  1.0
  Ni  Ni452  1  0.28555211  0.90008244  0.41958811  1.0
  Ni  Ni453  1  0.61888544  0.23341578  0.41958811  1.0
  Ni  Ni454  1  0.61888544  0.56674911  0.41958811  1.0
  Ni  Ni455  1  0.61888544  0.90008244  0.41958811  1.0
  Ni  Ni456  1  0.95221878  0.23341578  0.41958811  1.0
  Ni  Ni457  1  0.95221878  0.56674911  0.41958811  1.0
  Ni  Ni458  1  0.95221878  0.90008244  0.41958811  1.0
  Ni  Ni459  1  0.06332989  0.01119356  0.36403256  1.0
  Ni  Ni460  1  0.06332989  0.34452689  0.36403256  1.0
  Ni  Ni461  1  0.06332989  0.67786022  0.36403256  1.0
  Ni  Ni462  1  0.39666322  0.01119356  0.36403256  1.0
  Ni  Ni463  1  0.39666322  0.34452689  0.36403256  1.0
  Ni  Ni464  1  0.39666322  0.67786022  0.36403256  1.0
  Ni  Ni465  1  0.72999656  0.01119356  0.36403256  1.0
  Ni  Ni466  1  0.72999656  0.34452689  0.36403256  1.0
  Ni  Ni467  1  0.72999656  0.67786022  0.36403256  1.0
  Ni  Ni468  1  0.04727011  0.21393678  0.38060344  1.0
  Ni  Ni469  1  0.04727011  0.54727011  0.38060344  1.0
  Ni  Ni470  1  0.04727011  0.88060344  0.38060344  1.0
  Ni  Ni471  1  0.38060344  0.21393678  0.38060344  1.0
  Ni  Ni472  1  0.38060344  0.54727011  0.38060344  1.0
  Ni  Ni473  1  0.38060344  0.88060344  0.38060344  1.0
  Ni  Ni474  1  0.71393678  0.21393678  0.38060344  1.0
  Ni  Ni475  1  0.71393678  0.54727011  0.38060344  1.0
  Ni  Ni476  1  0.71393678  0.88060344  0.38060344  1.0
  Ni  Ni477  1  0.26949233  0.10282567  0.43615900  1.0
  Ni  Ni478  1  0.26949233  0.43615900  0.43615900  1.0
  Ni  Ni479  1  0.26949233  0.76949233  0.43615900  1.0
  Ni  Ni480  1  0.60282567  0.10282567  0.43615900  1.0
  Ni  Ni481  1  0.60282567  0.43615900  0.43615900  1.0
  Ni  Ni482  1  0.60282567  0.76949233  0.43615900  1.0
  Ni  Ni483  1  0.93615900  0.10282567  0.43615900  1.0
  Ni  Ni484  1  0.93615900  0.43615900  0.43615900  1.0
  Ni  Ni485  1  0.93615900  0.76949233  0.43615900  1.0
  Ni  Ni486  1  0.26949233  0.10282567  0.35282567  1.0
  Ni  Ni487  1  0.26949233  0.43615900  0.35282567  1.0
  Ni  Ni488  1  0.26949233  0.76949233  0.35282567  1.0
  Ni  Ni489  1  0.60282567  0.10282567  0.35282567  1.0
  Ni  Ni490  1  0.60282567  0.43615900  0.35282567  1.0
  Ni  Ni491  1  0.60282567  0.76949233  0.35282567  1.0
  Ni  Ni492  1  0.93615900  0.10282567  0.35282567  1.0
  Ni  Ni493  1  0.93615900  0.43615900  0.35282567  1.0
  Ni  Ni494  1  0.93615900  0.76949233  0.35282567  1.0
  Ni  Ni495  1  0.15838122  0.32504789  0.40838122  1.0
  Ni  Ni496  1  0.15838122  0.65838122  0.40838122  1.0
  Ni  Ni497  1  0.15838122  0.99171456  0.40838122  1.0
  Ni  Ni498  1  0.49171456  0.32504789  0.40838122  1.0
  Ni  Ni499  1  0.49171456  0.65838122  0.40838122  1.0
  Ni  Ni500  1  0.49171456  0.99171456  0.40838122  1.0
  Ni  Ni501  1  0.82504789  0.32504789  0.40838122  1.0
  Ni  Ni502  1  0.82504789  0.65838122  0.40838122  1.0
  Ni  Ni503  1  0.82504789  0.99171456  0.40838122  1.0
  Zr  Zr504  1  0.04244633  0.29968200  0.10557900  1.0
  Zr  Zr505  1  0.04244633  0.63301533  0.10557900  1.0
  Zr  Zr506  1  0.04244633  0.96634867  0.10557900  1.0
  Zr  Zr507  1  0.37577967  0.29968200  0.10557900  1.0
  Zr  Zr508  1  0.37577967  0.63301533  0.10557900  1.0
  Zr  Zr509  1  0.37577967  0.96634867  0.10557900  1.0
  Zr  Zr510  1  0.70911300  0.29968200  0.10557900  1.0
  Zr  Zr511  1  0.70911300  0.63301533  0.10557900  1.0
  Zr  Zr512  1  0.70911300  0.96634867  0.10557900  1.0
  Zr  Zr513  1  0.15355744  0.07745978  0.05002344  1.0
  Zr  Zr514  1  0.15355744  0.41079311  0.05002344  1.0
  Zr  Zr515  1  0.15355744  0.74412644  0.05002344  1.0
  Zr  Zr516  1  0.48689078  0.07745978  0.05002344  1.0
  Zr  Zr517  1  0.48689078  0.41079311  0.05002344  1.0
  Zr  Zr518  1  0.48689078  0.74412644  0.05002344  1.0
  Zr  Zr519  1  0.82022411  0.07745978  0.05002344  1.0
  Zr  Zr520  1  0.82022411  0.41079311  0.05002344  1.0
  Zr  Zr521  1  0.82022411  0.74412644  0.05002344  1.0
  Zr  Zr522  1  0.16320500  0.23930267  0.10007233  1.0
  Zr  Zr523  1  0.16320500  0.57263600  0.10007233  1.0
  Zr  Zr524  1  0.16320500  0.90596933  0.10007233  1.0
  Zr  Zr525  1  0.49653833  0.23930267  0.10007233  1.0
  Zr  Zr526  1  0.49653833  0.57263600  0.10007233  1.0
  Zr  Zr527  1  0.49653833  0.90596933  0.10007233  1.0
  Zr  Zr528  1  0.82987167  0.23930267  0.10007233  1.0
  Zr  Zr529  1  0.82987167  0.57263600  0.10007233  1.0
  Zr  Zr530  1  0.82987167  0.90596933  0.10007233  1.0
  Zr  Zr531  1  0.27431611  0.01708044  0.04451678  1.0
  Zr  Zr532  1  0.27431611  0.35041378  0.04451678  1.0
  Zr  Zr533  1  0.27431611  0.68374711  0.04451678  1.0
  Zr  Zr534  1  0.60764944  0.01708044  0.04451678  1.0
  Zr  Zr535  1  0.60764944  0.35041378  0.04451678  1.0
  Zr  Zr536  1  0.60764944  0.68374711  0.04451678  1.0
  Zr  Zr537  1  0.94098278  0.01708044  0.04451678  1.0
  Zr  Zr538  1  0.94098278  0.35041378  0.04451678  1.0
  Zr  Zr539  1  0.94098278  0.68374711  0.04451678  1.0
  Zr  Zr540  1  0.15355744  0.07745978  0.21669011  1.0
  Zr  Zr541  1  0.15355744  0.41079311  0.21669011  1.0
  Zr  Zr542  1  0.15355744  0.74412644  0.21669011  1.0
  Zr  Zr543  1  0.48689078  0.07745978  0.21669011  1.0
  Zr  Zr544  1  0.48689078  0.41079311  0.21669011  1.0
  Zr  Zr545  1  0.48689078  0.74412644  0.21669011  1.0
  Zr  Zr546  1  0.82022411  0.07745978  0.21669011  1.0
  Zr  Zr547  1  0.82022411  0.41079311  0.21669011  1.0
  Zr  Zr548  1  0.82022411  0.74412644  0.21669011  1.0
  Zr  Zr549  1  0.26466856  0.18857089  0.16113456  1.0
  Zr  Zr550  1  0.26466856  0.52190422  0.16113456  1.0
  Zr  Zr551  1  0.26466856  0.85523756  0.16113456  1.0
  Zr  Zr552  1  0.59800189  0.18857089  0.16113456  1.0
  Zr  Zr553  1  0.59800189  0.52190422  0.16113456  1.0
  Zr  Zr554  1  0.59800189  0.85523756  0.16113456  1.0
  Zr  Zr555  1  0.93133522  0.18857089  0.16113456  1.0
  Zr  Zr556  1  0.93133522  0.52190422  0.16113456  1.0
  Zr  Zr557  1  0.93133522  0.85523756  0.16113456  1.0
  Zr  Zr558  1  0.27431611  0.01708044  0.21118344  1.0
  Zr  Zr559  1  0.27431611  0.35041378  0.21118344  1.0
  Zr  Zr560  1  0.27431611  0.68374711  0.21118344  1.0
  Zr  Zr561  1  0.60764944  0.01708044  0.21118344  1.0
  Zr  Zr562  1  0.60764944  0.35041378  0.21118344  1.0
  Zr  Zr563  1  0.60764944  0.68374711  0.21118344  1.0
  Zr  Zr564  1  0.94098278  0.01708044  0.21118344  1.0
  Zr  Zr565  1  0.94098278  0.35041378  0.21118344  1.0
  Zr  Zr566  1  0.94098278  0.68374711  0.21118344  1.0
  Zr  Zr567  1  0.05209389  0.12819156  0.15562789  1.0
  Zr  Zr568  1  0.05209389  0.46152489  0.15562789  1.0
  Zr  Zr569  1  0.05209389  0.79485822  0.15562789  1.0
  Zr  Zr570  1  0.38542722  0.12819156  0.15562789  1.0
  Zr  Zr571  1  0.38542722  0.46152489  0.15562789  1.0
  Zr  Zr572  1  0.38542722  0.79485822  0.15562789  1.0
  Zr  Zr573  1  0.71876056  0.12819156  0.15562789  1.0
  Zr  Zr574  1  0.71876056  0.46152489  0.15562789  1.0
  Zr  Zr575  1  0.71876056  0.79485822  0.15562789  1.0
  Zr  Zr576  1  0.26466856  0.18857089  0.32780122  1.0
  Zr  Zr577  1  0.26466856  0.52190422  0.32780122  1.0
  Zr  Zr578  1  0.26466856  0.85523756  0.32780122  1.0
  Zr  Zr579  1  0.59800189  0.18857089  0.32780122  1.0
  Zr  Zr580  1  0.59800189  0.52190422  0.32780122  1.0
  Zr  Zr581  1  0.59800189  0.85523756  0.32780122  1.0
  Zr  Zr582  1  0.93133522  0.18857089  0.32780122  1.0
  Zr  Zr583  1  0.93133522  0.52190422  0.32780122  1.0
  Zr  Zr584  1  0.93133522  0.85523756  0.32780122  1.0
  Zr  Zr585  1  0.04244633  0.29968200  0.27224567  1.0
  Zr  Zr586  1  0.04244633  0.63301533  0.27224567  1.0
  Zr  Zr587  1  0.04244633  0.96634867  0.27224567  1.0
  Zr  Zr588  1  0.37577967  0.29968200  0.27224567  1.0
  Zr  Zr589  1  0.37577967  0.63301533  0.27224567  1.0
  Zr  Zr590  1  0.37577967  0.96634867  0.27224567  1.0
  Zr  Zr591  1  0.70911300  0.29968200  0.27224567  1.0
  Zr  Zr592  1  0.70911300  0.63301533  0.27224567  1.0
  Zr  Zr593  1  0.70911300  0.96634867  0.27224567  1.0
  Zr  Zr594  1  0.05209389  0.12819156  0.32229456  1.0
  Zr  Zr595  1  0.05209389  0.46152489  0.32229456  1.0
  Zr  Zr596  1  0.05209389  0.79485822  0.32229456  1.0
  Zr  Zr597  1  0.38542722  0.12819156  0.32229456  1.0
  Zr  Zr598  1  0.38542722  0.46152489  0.32229456  1.0
  Zr  Zr599  1  0.38542722  0.79485822  0.32229456  1.0
  Zr  Zr600  1  0.71876056  0.12819156  0.32229456  1.0
  Zr  Zr601  1  0.71876056  0.46152489  0.32229456  1.0
  Zr  Zr602  1  0.71876056  0.79485822  0.32229456  1.0
  Zr  Zr603  1  0.16320500  0.23930267  0.26673900  1.0
  Zr  Zr604  1  0.16320500  0.57263600  0.26673900  1.0
  Zr  Zr605  1  0.16320500  0.90596933  0.26673900  1.0
  Zr  Zr606  1  0.49653833  0.23930267  0.26673900  1.0
  Zr  Zr607  1  0.49653833  0.57263600  0.26673900  1.0
  Zr  Zr608  1  0.49653833  0.90596933  0.26673900  1.0
  Zr  Zr609  1  0.82987167  0.23930267  0.26673900  1.0
  Zr  Zr610  1  0.82987167  0.57263600  0.26673900  1.0
  Zr  Zr611  1  0.82987167  0.90596933  0.26673900  1.0
  Zr  Zr612  1  0.04244633  0.29968200  0.43891233  1.0
  Zr  Zr613  1  0.04244633  0.63301533  0.43891233  1.0
  Zr  Zr614  1  0.04244633  0.96634867  0.43891233  1.0
  Zr  Zr615  1  0.37577967  0.29968200  0.43891233  1.0
  Zr  Zr616  1  0.37577967  0.63301533  0.43891233  1.0
  Zr  Zr617  1  0.37577967  0.96634867  0.43891233  1.0
  Zr  Zr618  1  0.70911300  0.29968200  0.43891233  1.0
  Zr  Zr619  1  0.70911300  0.63301533  0.43891233  1.0
  Zr  Zr620  1  0.70911300  0.96634867  0.43891233  1.0
  Zr  Zr621  1  0.15355744  0.07745978  0.38335678  1.0
  Zr  Zr622  1  0.15355744  0.41079311  0.38335678  1.0
  Zr  Zr623  1  0.15355744  0.74412644  0.38335678  1.0
  Zr  Zr624  1  0.48689078  0.07745978  0.38335678  1.0
  Zr  Zr625  1  0.48689078  0.41079311  0.38335678  1.0
  Zr  Zr626  1  0.48689078  0.74412644  0.38335678  1.0
  Zr  Zr627  1  0.82022411  0.07745978  0.38335678  1.0
  Zr  Zr628  1  0.82022411  0.41079311  0.38335678  1.0
  Zr  Zr629  1  0.82022411  0.74412644  0.38335678  1.0
  Zr  Zr630  1  0.16320500  0.23930267  0.43340567  1.0
  Zr  Zr631  1  0.16320500  0.57263600  0.43340567  1.0
  Zr  Zr632  1  0.16320500  0.90596933  0.43340567  1.0
  Zr  Zr633  1  0.49653833  0.23930267  0.43340567  1.0
  Zr  Zr634  1  0.49653833  0.57263600  0.43340567  1.0
  Zr  Zr635  1  0.49653833  0.90596933  0.43340567  1.0
  Zr  Zr636  1  0.82987167  0.23930267  0.43340567  1.0
  Zr  Zr637  1  0.82987167  0.57263600  0.43340567  1.0
  Zr  Zr638  1  0.82987167  0.90596933  0.43340567  1.0
  Zr  Zr639  1  0.27431611  0.01708044  0.37785011  1.0
  Zr  Zr640  1  0.27431611  0.35041378  0.37785011  1.0
  Zr  Zr641  1  0.27431611  0.68374711  0.37785011  1.0
  Zr  Zr642  1  0.60764944  0.01708044  0.37785011  1.0
  Zr  Zr643  1  0.60764944  0.35041378  0.37785011  1.0
  Zr  Zr644  1  0.60764944  0.68374711  0.37785011  1.0
  Zr  Zr645  1  0.94098278  0.01708044  0.37785011  1.0
  Zr  Zr646  1  0.94098278  0.35041378  0.37785011  1.0
  Zr  Zr647  1  0.94098278  0.68374711  0.37785011  1.0
