# generated using pymatgen
data_Zr2Ni7
_symmetry_space_group_name_H-M   'P 1'
_cell_length_a   14.15573109
_cell_length_b   36.34882836
_cell_length_c   33.03003921
_cell_angle_alpha   92.79814157
_cell_angle_beta   59.41454174
_cell_angle_gamma   87.20185843
_symmetry_Int_Tables_number   1
_chemical_formula_structural   Zr2Ni7
_chemical_formula_sum   'Zr108 Ni378'
_cell_volume   14559.70406845
_cell_formula_units_Z   54
loop_
 _symmetry_equiv_pos_site_id
 _symmetry_equiv_pos_as_xyz
  1  'x, y, z'
loop_
 _atom_site_type_symbol
 _atom_site_label
 _atom_site_symmetry_multiplicity
 _atom_site_fract_x
 _atom_site_fract_y
 _atom_site_fract_z
 _atom_site_occupancy
  Zr  Zr0  1  0.08905033  0.03785233  0.10469271  1.0
  Zr  Zr1  1  0.08905033  0.37118567  0.10469271  1.0
  Zr  Zr2  1  0.08905033  0.70451900  0.10469271  1.0
  Zr  Zr3  1  0.42238367  0.03785233  0.10469271  1.0
  Zr  Zr4  1  0.42238367  0.37118567  0.10469271  1.0
  Zr  Zr5  1  0.42238367  0.70451900  0.10469271  1.0
  Zr  Zr6  1  0.75571700  0.03785233  0.10469271  1.0
  Zr  Zr7  1  0.75571700  0.37118567  0.10469271  1.0
  Zr  Zr8  1  0.75571700  0.70451900  0.10469271  1.0
  Zr  Zr9  1  0.06974067  0.12842467  0.11296829  1.0
  Zr  Zr10  1  0.06974067  0.46175800  0.11296829  1.0
  Zr  Zr11  1  0.06974067  0.79509133  0.11296829  1.0
  Zr  Zr12  1  0.40307400  0.12842467  0.11296829  1.0
  Zr  Zr13  1  0.40307400  0.46175800  0.11296829  1.0
  Zr  Zr14  1  0.40307400  0.79509133  0.11296829  1.0
  Zr  Zr15  1  0.73640733  0.12842467  0.11296829  1.0
  Zr  Zr16  1  0.73640733  0.46175800  0.11296829  1.0
  Zr  Zr17  1  0.73640733  0.79509133  0.11296829  1.0
  Zr  Zr18  1  0.26359267  0.20490867  0.02988886  1.0
  Zr  Zr19  1  0.26359267  0.53824200  0.02988886  1.0
  Zr  Zr20  1  0.26359267  0.87157533  0.02988886  1.0
  Zr  Zr21  1  0.59692600  0.20490867  0.02988886  1.0
  Zr  Zr22  1  0.59692600  0.53824200  0.02988886  1.0
  Zr  Zr23  1  0.59692600  0.87157533  0.02988886  1.0
  Zr  Zr24  1  0.93025933  0.20490867  0.02988886  1.0
  Zr  Zr25  1  0.93025933  0.53824200  0.02988886  1.0
  Zr  Zr26  1  0.93025933  0.87157533  0.02988886  1.0
  Zr  Zr27  1  0.24428300  0.29548100  0.03816443  1.0
  Zr  Zr28  1  0.24428300  0.62881433  0.03816443  1.0
  Zr  Zr29  1  0.24428300  0.96214767  0.03816443  1.0
  Zr  Zr30  1  0.57761633  0.29548100  0.03816443  1.0
  Zr  Zr31  1  0.57761633  0.62881433  0.03816443  1.0
  Zr  Zr32  1  0.57761633  0.96214767  0.03816443  1.0
  Zr  Zr33  1  0.91094967  0.29548100  0.03816443  1.0
  Zr  Zr34  1  0.91094967  0.62881433  0.03816443  1.0
  Zr  Zr35  1  0.91094967  0.96214767  0.03816443  1.0
  Ni  Ni36  1  0.20609767  0.02601700  0.00747271  1.0
  Ni  Ni37  1  0.20609767  0.35935033  0.00747271  1.0
  Ni  Ni38  1  0.20609767  0.69268367  0.00747271  1.0
  Ni  Ni39  1  0.53943100  0.02601700  0.00747271  1.0
  Ni  Ni40  1  0.53943100  0.35935033  0.00747271  1.0
  Ni  Ni41  1  0.53943100  0.69268367  0.00747271  1.0
  Ni  Ni42  1  0.87276433  0.02601700  0.00747271  1.0
  Ni  Ni43  1  0.87276433  0.35935033  0.00747271  1.0
  Ni  Ni44  1  0.87276433  0.69268367  0.00747271  1.0
  Ni  Ni45  1  0.31589700  0.02601700  0.05452957  1.0
  Ni  Ni46  1  0.31589700  0.35935033  0.05452957  1.0
  Ni  Ni47  1  0.31589700  0.69268367  0.05452957  1.0
  Ni  Ni48  1  0.64923033  0.02601700  0.05452957  1.0
  Ni  Ni49  1  0.64923033  0.35935033  0.05452957  1.0
  Ni  Ni50  1  0.64923033  0.69268367  0.05452957  1.0
  Ni  Ni51  1  0.98256367  0.02601700  0.05452957  1.0
  Ni  Ni52  1  0.98256367  0.35935033  0.05452957  1.0
  Ni  Ni53  1  0.98256367  0.69268367  0.05452957  1.0
  Ni  Ni54  1  0.24348933  0.08326533  0.10931114  1.0
  Ni  Ni55  1  0.24348933  0.41659867  0.10931114  1.0
  Ni  Ni56  1  0.24348933  0.74993200  0.10931114  1.0
  Ni  Ni57  1  0.57682267  0.08326533  0.10931114  1.0
  Ni  Ni58  1  0.57682267  0.41659867  0.10931114  1.0
  Ni  Ni59  1  0.57682267  0.74993200  0.10931114  1.0
  Ni  Ni60  1  0.91015600  0.08326533  0.10931114  1.0
  Ni  Ni61  1  0.91015600  0.41659867  0.10931114  1.0
  Ni  Ni62  1  0.91015600  0.74993200  0.10931114  1.0
  Ni  Ni63  1  0.07827400  0.08326533  0.03850457  1.0
  Ni  Ni64  1  0.07827400  0.41659867  0.03850457  1.0
  Ni  Ni65  1  0.07827400  0.74993200  0.03850457  1.0
  Ni  Ni66  1  0.41160733  0.08326533  0.03850457  1.0
  Ni  Ni67  1  0.41160733  0.41659867  0.03850457  1.0
  Ni  Ni68  1  0.41160733  0.74993200  0.03850457  1.0
  Ni  Ni69  1  0.74494067  0.08326533  0.03850457  1.0
  Ni  Ni70  1  0.74494067  0.41659867  0.03850457  1.0
  Ni  Ni71  1  0.74494067  0.74993200  0.03850457  1.0
  Ni  Ni72  1  0.24632533  0.08346833  0.03728914  1.0
  Ni  Ni73  1  0.24632533  0.41680167  0.03728914  1.0
  Ni  Ni74  1  0.24632533  0.75013500  0.03728914  1.0
  Ni  Ni75  1  0.57965867  0.08346833  0.03728914  1.0
  Ni  Ni76  1  0.57965867  0.41680167  0.03728914  1.0
  Ni  Ni77  1  0.57965867  0.75013500  0.03728914  1.0
  Ni  Ni78  1  0.91299200  0.08346833  0.03728914  1.0
  Ni  Ni79  1  0.91299200  0.41680167  0.03728914  1.0
  Ni  Ni80  1  0.91299200  0.75013500  0.03728914  1.0
  Ni  Ni81  1  0.28706033  0.14065533  0.06740886  1.0
  Ni  Ni82  1  0.28706033  0.47398867  0.06740886  1.0
  Ni  Ni83  1  0.28706033  0.80732200  0.06740886  1.0
  Ni  Ni84  1  0.62039367  0.14065533  0.06740886  1.0
  Ni  Ni85  1  0.62039367  0.47398867  0.06740886  1.0
  Ni  Ni86  1  0.62039367  0.80732200  0.06740886  1.0
  Ni  Ni87  1  0.95372700  0.14065533  0.06740886  1.0
  Ni  Ni88  1  0.95372700  0.47398867  0.06740886  1.0
  Ni  Ni89  1  0.95372700  0.80732200  0.06740886  1.0
  Ni  Ni90  1  0.17604600  0.14065533  0.01983129  1.0
  Ni  Ni91  1  0.17604600  0.47398867  0.01983129  1.0
  Ni  Ni92  1  0.17604600  0.80732200  0.01983129  1.0
  Ni  Ni93  1  0.50937933  0.14065533  0.01983129  1.0
  Ni  Ni94  1  0.50937933  0.47398867  0.01983129  1.0
  Ni  Ni95  1  0.50937933  0.80732200  0.01983129  1.0
  Ni  Ni96  1  0.84271267  0.14065533  0.01983129  1.0
  Ni  Ni97  1  0.84271267  0.47398867  0.01983129  1.0
  Ni  Ni98  1  0.84271267  0.80732200  0.01983129  1.0
  Ni  Ni99  1  0.04627300  0.19267800  0.07544829  1.0
  Ni  Ni100  1  0.04627300  0.52601133  0.07544829  1.0
  Ni  Ni101  1  0.04627300  0.85934467  0.07544829  1.0
  Ni  Ni102  1  0.37960633  0.19267800  0.07544829  1.0
  Ni  Ni103  1  0.37960633  0.52601133  0.07544829  1.0
  Ni  Ni104  1  0.37960633  0.85934467  0.07544829  1.0
  Ni  Ni105  1  0.71293967  0.19267800  0.07544829  1.0
  Ni  Ni106  1  0.71293967  0.52601133  0.07544829  1.0
  Ni  Ni107  1  0.71293967  0.85934467  0.07544829  1.0
  Ni  Ni108  1  0.15728733  0.19267800  0.12302586  1.0
  Ni  Ni109  1  0.15728733  0.52601133  0.12302586  1.0
  Ni  Ni110  1  0.15728733  0.85934467  0.12302586  1.0
  Ni  Ni111  1  0.49062067  0.19267800  0.12302586  1.0
  Ni  Ni112  1  0.49062067  0.52601133  0.12302586  1.0
  Ni  Ni113  1  0.49062067  0.85934467  0.12302586  1.0
  Ni  Ni114  1  0.82395400  0.19267800  0.12302586  1.0
  Ni  Ni115  1  0.82395400  0.52601133  0.12302586  1.0
  Ni  Ni116  1  0.82395400  0.85934467  0.12302586  1.0
  Ni  Ni117  1  0.08700800  0.24986500  0.10556800  1.0
  Ni  Ni118  1  0.08700800  0.58319833  0.10556800  1.0
  Ni  Ni119  1  0.08700800  0.91653167  0.10556800  1.0
  Ni  Ni120  1  0.42034133  0.24986500  0.10556800  1.0
  Ni  Ni121  1  0.42034133  0.58319833  0.10556800  1.0
  Ni  Ni122  1  0.42034133  0.91653167  0.10556800  1.0
  Ni  Ni123  1  0.75367467  0.24986500  0.10556800  1.0
  Ni  Ni124  1  0.75367467  0.58319833  0.10556800  1.0
  Ni  Ni125  1  0.75367467  0.91653167  0.10556800  1.0
  Ni  Ni126  1  0.08984400  0.25006800  0.03354600  1.0
  Ni  Ni127  1  0.08984400  0.58340133  0.03354600  1.0
  Ni  Ni128  1  0.08984400  0.91673467  0.03354600  1.0
  Ni  Ni129  1  0.42317733  0.25006800  0.03354600  1.0
  Ni  Ni130  1  0.42317733  0.58340133  0.03354600  1.0
  Ni  Ni131  1  0.42317733  0.91673467  0.03354600  1.0
  Ni  Ni132  1  0.75651067  0.25006800  0.03354600  1.0
  Ni  Ni133  1  0.75651067  0.58340133  0.03354600  1.0
  Ni  Ni134  1  0.75651067  0.91673467  0.03354600  1.0
  Ni  Ni135  1  0.25505933  0.25006800  0.10435257  1.0
  Ni  Ni136  1  0.25505933  0.58340133  0.10435257  1.0
  Ni  Ni137  1  0.25505933  0.91673467  0.10435257  1.0
  Ni  Ni138  1  0.58839267  0.25006800  0.10435257  1.0
  Ni  Ni139  1  0.58839267  0.58340133  0.10435257  1.0
  Ni  Ni140  1  0.58839267  0.91673467  0.10435257  1.0
  Ni  Ni141  1  0.92172600  0.25006800  0.10435257  1.0
  Ni  Ni142  1  0.92172600  0.58340133  0.10435257  1.0
  Ni  Ni143  1  0.92172600  0.91673467  0.10435257  1.0
  Ni  Ni144  1  0.12723567  0.30731633  0.13538443  1.0
  Ni  Ni145  1  0.12723567  0.64064967  0.13538443  1.0
  Ni  Ni146  1  0.12723567  0.97398300  0.13538443  1.0
  Ni  Ni147  1  0.46056900  0.30731633  0.13538443  1.0
  Ni  Ni148  1  0.46056900  0.64064967  0.13538443  1.0
  Ni  Ni149  1  0.46056900  0.97398300  0.13538443  1.0
  Ni  Ni150  1  0.79390233  0.30731633  0.13538443  1.0
  Ni  Ni151  1  0.79390233  0.64064967  0.13538443  1.0
  Ni  Ni152  1  0.79390233  0.97398300  0.13538443  1.0
  Ni  Ni153  1  0.01743633  0.30731633  0.08832757  1.0
  Ni  Ni154  1  0.01743633  0.64064967  0.08832757  1.0
  Ni  Ni155  1  0.01743633  0.97398300  0.08832757  1.0
  Ni  Ni156  1  0.35076967  0.30731633  0.08832757  1.0
  Ni  Ni157  1  0.35076967  0.64064967  0.08832757  1.0
  Ni  Ni158  1  0.35076967  0.97398300  0.08832757  1.0
  Ni  Ni159  1  0.68410300  0.30731633  0.08832757  1.0
  Ni  Ni160  1  0.68410300  0.64064967  0.08832757  1.0
  Ni  Ni161  1  0.68410300  0.97398300  0.08832757  1.0
  Zr  Zr162  1  0.08905033  0.03785233  0.24754986  1.0
  Zr  Zr163  1  0.08905033  0.37118567  0.24754986  1.0
  Zr  Zr164  1  0.08905033  0.70451900  0.24754986  1.0
  Zr  Zr165  1  0.42238367  0.03785233  0.24754986  1.0
  Zr  Zr166  1  0.42238367  0.37118567  0.24754986  1.0
  Zr  Zr167  1  0.42238367  0.70451900  0.24754986  1.0
  Zr  Zr168  1  0.75571700  0.03785233  0.24754986  1.0
  Zr  Zr169  1  0.75571700  0.37118567  0.24754986  1.0
  Zr  Zr170  1  0.75571700  0.70451900  0.24754986  1.0
  Zr  Zr171  1  0.06974067  0.12842467  0.25582543  1.0
  Zr  Zr172  1  0.06974067  0.46175800  0.25582543  1.0
  Zr  Zr173  1  0.06974067  0.79509133  0.25582543  1.0
  Zr  Zr174  1  0.40307400  0.12842467  0.25582543  1.0
  Zr  Zr175  1  0.40307400  0.46175800  0.25582543  1.0
  Zr  Zr176  1  0.40307400  0.79509133  0.25582543  1.0
  Zr  Zr177  1  0.73640733  0.12842467  0.25582543  1.0
  Zr  Zr178  1  0.73640733  0.46175800  0.25582543  1.0
  Zr  Zr179  1  0.73640733  0.79509133  0.25582543  1.0
  Zr  Zr180  1  0.26359267  0.20490867  0.17274600  1.0
  Zr  Zr181  1  0.26359267  0.53824200  0.17274600  1.0
  Zr  Zr182  1  0.26359267  0.87157533  0.17274600  1.0
  Zr  Zr183  1  0.59692600  0.20490867  0.17274600  1.0
  Zr  Zr184  1  0.59692600  0.53824200  0.17274600  1.0
  Zr  Zr185  1  0.59692600  0.87157533  0.17274600  1.0
  Zr  Zr186  1  0.93025933  0.20490867  0.17274600  1.0
  Zr  Zr187  1  0.93025933  0.53824200  0.17274600  1.0
  Zr  Zr188  1  0.93025933  0.87157533  0.17274600  1.0
  Zr  Zr189  1  0.24428300  0.29548100  0.18102157  1.0
  Zr  Zr190  1  0.24428300  0.62881433  0.18102157  1.0
  Zr  Zr191  1  0.24428300  0.96214767  0.18102157  1.0
  Zr  Zr192  1  0.57761633  0.29548100  0.18102157  1.0
  Zr  Zr193  1  0.57761633  0.62881433  0.18102157  1.0
  Zr  Zr194  1  0.57761633  0.96214767  0.18102157  1.0
  Zr  Zr195  1  0.91094967  0.29548100  0.18102157  1.0
  Zr  Zr196  1  0.91094967  0.62881433  0.18102157  1.0
  Zr  Zr197  1  0.91094967  0.96214767  0.18102157  1.0
  Ni  Ni198  1  0.20609767  0.02601700  0.15032986  1.0
  Ni  Ni199  1  0.20609767  0.35935033  0.15032986  1.0
  Ni  Ni200  1  0.20609767  0.69268367  0.15032986  1.0
  Ni  Ni201  1  0.53943100  0.02601700  0.15032986  1.0
  Ni  Ni202  1  0.53943100  0.35935033  0.15032986  1.0
  Ni  Ni203  1  0.53943100  0.69268367  0.15032986  1.0
  Ni  Ni204  1  0.87276433  0.02601700  0.15032986  1.0
  Ni  Ni205  1  0.87276433  0.35935033  0.15032986  1.0
  Ni  Ni206  1  0.87276433  0.69268367  0.15032986  1.0
  Ni  Ni207  1  0.31589700  0.02601700  0.19738671  1.0
  Ni  Ni208  1  0.31589700  0.35935033  0.19738671  1.0
  Ni  Ni209  1  0.31589700  0.69268367  0.19738671  1.0
  Ni  Ni210  1  0.64923033  0.02601700  0.19738671  1.0
  Ni  Ni211  1  0.64923033  0.35935033  0.19738671  1.0
  Ni  Ni212  1  0.64923033  0.69268367  0.19738671  1.0
  Ni  Ni213  1  0.98256367  0.02601700  0.19738671  1.0
  Ni  Ni214  1  0.98256367  0.35935033  0.19738671  1.0
  Ni  Ni215  1  0.98256367  0.69268367  0.19738671  1.0
  Ni  Ni216  1  0.24348933  0.08326533  0.25216829  1.0
  Ni  Ni217  1  0.24348933  0.41659867  0.25216829  1.0
  Ni  Ni218  1  0.24348933  0.74993200  0.25216829  1.0
  Ni  Ni219  1  0.57682267  0.08326533  0.25216829  1.0
  Ni  Ni220  1  0.57682267  0.41659867  0.25216829  1.0
  Ni  Ni221  1  0.57682267  0.74993200  0.25216829  1.0
  Ni  Ni222  1  0.91015600  0.08326533  0.25216829  1.0
  Ni  Ni223  1  0.91015600  0.41659867  0.25216829  1.0
  Ni  Ni224  1  0.91015600  0.74993200  0.25216829  1.0
  Ni  Ni225  1  0.07827400  0.08326533  0.18136171  1.0
  Ni  Ni226  1  0.07827400  0.41659867  0.18136171  1.0
  Ni  Ni227  1  0.07827400  0.74993200  0.18136171  1.0
  Ni  Ni228  1  0.41160733  0.08326533  0.18136171  1.0
  Ni  Ni229  1  0.41160733  0.41659867  0.18136171  1.0
  Ni  Ni230  1  0.41160733  0.74993200  0.18136171  1.0
  Ni  Ni231  1  0.74494067  0.08326533  0.18136171  1.0
  Ni  Ni232  1  0.74494067  0.41659867  0.18136171  1.0
  Ni  Ni233  1  0.74494067  0.74993200  0.18136171  1.0
  Ni  Ni234  1  0.24632533  0.08346833  0.18014629  1.0
  Ni  Ni235  1  0.24632533  0.41680167  0.18014629  1.0
  Ni  Ni236  1  0.24632533  0.75013500  0.18014629  1.0
  Ni  Ni237  1  0.57965867  0.08346833  0.18014629  1.0
  Ni  Ni238  1  0.57965867  0.41680167  0.18014629  1.0
  Ni  Ni239  1  0.57965867  0.75013500  0.18014629  1.0
  Ni  Ni240  1  0.91299200  0.08346833  0.18014629  1.0
  Ni  Ni241  1  0.91299200  0.41680167  0.18014629  1.0
  Ni  Ni242  1  0.91299200  0.75013500  0.18014629  1.0
  Ni  Ni243  1  0.28706033  0.14065533  0.21026600  1.0
  Ni  Ni244  1  0.28706033  0.47398867  0.21026600  1.0
  Ni  Ni245  1  0.28706033  0.80732200  0.21026600  1.0
  Ni  Ni246  1  0.62039367  0.14065533  0.21026600  1.0
  Ni  Ni247  1  0.62039367  0.47398867  0.21026600  1.0
  Ni  Ni248  1  0.62039367  0.80732200  0.21026600  1.0
  Ni  Ni249  1  0.95372700  0.14065533  0.21026600  1.0
  Ni  Ni250  1  0.95372700  0.47398867  0.21026600  1.0
  Ni  Ni251  1  0.95372700  0.80732200  0.21026600  1.0
  Ni  Ni252  1  0.17604600  0.14065533  0.16268843  1.0
  Ni  Ni253  1  0.17604600  0.47398867  0.16268843  1.0
  Ni  Ni254  1  0.17604600  0.80732200  0.16268843  1.0
  Ni  Ni255  1  0.50937933  0.14065533  0.16268843  1.0
  Ni  Ni256  1  0.50937933  0.47398867  0.16268843  1.0
  Ni  Ni257  1  0.50937933  0.80732200  0.16268843  1.0
  Ni  Ni258  1  0.84271267  0.14065533  0.16268843  1.0
  Ni  Ni259  1  0.84271267  0.47398867  0.16268843  1.0
  Ni  Ni260  1  0.84271267  0.80732200  0.16268843  1.0
  Ni  Ni261  1  0.04627300  0.19267800  0.21830543  1.0
  Ni  Ni262  1  0.04627300  0.52601133  0.21830543  1.0
  Ni  Ni263  1  0.04627300  0.85934467  0.21830543  1.0
  Ni  Ni264  1  0.37960633  0.19267800  0.21830543  1.0
  Ni  Ni265  1  0.37960633  0.52601133  0.21830543  1.0
  Ni  Ni266  1  0.37960633  0.85934467  0.21830543  1.0
  Ni  Ni267  1  0.71293967  0.19267800  0.21830543  1.0
  Ni  Ni268  1  0.71293967  0.52601133  0.21830543  1.0
  Ni  Ni269  1  0.71293967  0.85934467  0.21830543  1.0
  Ni  Ni270  1  0.15728733  0.19267800  0.26588300  1.0
  Ni  Ni271  1  0.15728733  0.52601133  0.26588300  1.0
  Ni  Ni272  1  0.15728733  0.85934467  0.26588300  1.0
  Ni  Ni273  1  0.49062067  0.19267800  0.26588300  1.0
  Ni  Ni274  1  0.49062067  0.52601133  0.26588300  1.0
  Ni  Ni275  1  0.49062067  0.85934467  0.26588300  1.0
  Ni  Ni276  1  0.82395400  0.19267800  0.26588300  1.0
  Ni  Ni277  1  0.82395400  0.52601133  0.26588300  1.0
  Ni  Ni278  1  0.82395400  0.85934467  0.26588300  1.0
  Ni  Ni279  1  0.08700800  0.24986500  0.24842514  1.0
  Ni  Ni280  1  0.08700800  0.58319833  0.24842514  1.0
  Ni  Ni281  1  0.08700800  0.91653167  0.24842514  1.0
  Ni  Ni282  1  0.42034133  0.24986500  0.24842514  1.0
  Ni  Ni283  1  0.42034133  0.58319833  0.24842514  1.0
  Ni  Ni284  1  0.42034133  0.91653167  0.24842514  1.0
  Ni  Ni285  1  0.75367467  0.24986500  0.24842514  1.0
  Ni  Ni286  1  0.75367467  0.58319833  0.24842514  1.0
  Ni  Ni287  1  0.75367467  0.91653167  0.24842514  1.0
  Ni  Ni288  1  0.08984400  0.25006800  0.17640314  1.0
  Ni  Ni289  1  0.08984400  0.58340133  0.17640314  1.0
  Ni  Ni290  1  0.08984400  0.91673467  0.17640314  1.0
  Ni  Ni291  1  0.42317733  0.25006800  0.17640314  1.0
  Ni  Ni292  1  0.42317733  0.58340133  0.17640314  1.0
  Ni  Ni293  1  0.42317733  0.91673467  0.17640314  1.0
  Ni  Ni294  1  0.75651067  0.25006800  0.17640314  1.0
  Ni  Ni295  1  0.75651067  0.58340133  0.17640314  1.0
  Ni  Ni296  1  0.75651067  0.91673467  0.17640314  1.0
  Ni  Ni297  1  0.25505933  0.25006800  0.24720971  1.0
  Ni  Ni298  1  0.25505933  0.58340133  0.24720971  1.0
  Ni  Ni299  1  0.25505933  0.91673467  0.24720971  1.0
  Ni  Ni300  1  0.58839267  0.25006800  0.24720971  1.0
  Ni  Ni301  1  0.58839267  0.58340133  0.24720971  1.0
  Ni  Ni302  1  0.58839267  0.91673467  0.24720971  1.0
  Ni  Ni303  1  0.92172600  0.25006800  0.24720971  1.0
  Ni  Ni304  1  0.92172600  0.58340133  0.24720971  1.0
  Ni  Ni305  1  0.92172600  0.91673467  0.24720971  1.0
  Ni  Ni306  1  0.12723567  0.30731633  0.27824157  1.0
  Ni  Ni307  1  0.12723567  0.64064967  0.27824157  1.0
  Ni  Ni308  1  0.12723567  0.97398300  0.27824157  1.0
  Ni  Ni309  1  0.46056900  0.30731633  0.27824157  1.0
  Ni  Ni310  1  0.46056900  0.64064967  0.27824157  1.0
  Ni  Ni311  1  0.46056900  0.97398300  0.27824157  1.0
  Ni  Ni312  1  0.79390233  0.30731633  0.27824157  1.0
  Ni  Ni313  1  0.79390233  0.64064967  0.27824157  1.0
  Ni  Ni314  1  0.79390233  0.97398300  0.27824157  1.0
  Ni  Ni315  1  0.01743633  0.30731633  0.23118471  1.0
  Ni  Ni316  1  0.01743633  0.64064967  0.23118471  1.0
  Ni  Ni317  1  0.01743633  0.97398300  0.23118471  1.0
  Ni  Ni318  1  0.35076967  0.30731633  0.23118471  1.0
  Ni  Ni319  1  0.35076967  0.64064967  0.23118471  1.0
  Ni  Ni320  1  0.35076967  0.97398300  0.23118471  1.0
  Ni  Ni321  1  0.68410300  0.30731633  0.23118471  1.0
  Ni  Ni322  1  0.68410300  0.64064967  0.23118471  1.0
  Ni  Ni323  1  0.68410300  0.97398300  0.23118471  1.0
  Zr  Zr324  1  0.08905033  0.03785233  0.39040700  1.0
  Zr  Zr325  1  0.08905033  0.37118567  0.39040700  1.0
  Zr  Zr326  1  0.08905033  0.70451900  0.39040700  1.0
  Zr  Zr327  1  0.42238367  0.03785233  0.39040700  1.0
  Zr  Zr328  1  0.42238367  0.37118567  0.39040700  1.0
  Zr  Zr329  1  0.42238367  0.70451900  0.39040700  1.0
  Zr  Zr330  1  0.75571700  0.03785233  0.39040700  1.0
  Zr  Zr331  1  0.75571700  0.37118567  0.39040700  1.0
  Zr  Zr332  1  0.75571700  0.70451900  0.39040700  1.0
  Zr  Zr333  1  0.06974067  0.12842467  0.39868257  1.0
  Zr  Zr334  1  0.06974067  0.46175800  0.39868257  1.0
  Zr  Zr335  1  0.06974067  0.79509133  0.39868257  1.0
  Zr  Zr336  1  0.40307400  0.12842467  0.39868257  1.0
  Zr  Zr337  1  0.40307400  0.46175800  0.39868257  1.0
  Zr  Zr338  1  0.40307400  0.79509133  0.39868257  1.0
  Zr  Zr339  1  0.73640733  0.12842467  0.39868257  1.0
  Zr  Zr340  1  0.73640733  0.46175800  0.39868257  1.0
  Zr  Zr341  1  0.73640733  0.79509133  0.39868257  1.0
  Zr  Zr342  1  0.26359267  0.20490867  0.31560314  1.0
  Zr  Zr343  1  0.26359267  0.53824200  0.31560314  1.0
  Zr  Zr344  1  0.26359267  0.87157533  0.31560314  1.0
  Zr  Zr345  1  0.59692600  0.20490867  0.31560314  1.0
  Zr  Zr346  1  0.59692600  0.53824200  0.31560314  1.0
  Zr  Zr347  1  0.59692600  0.87157533  0.31560314  1.0
  Zr  Zr348  1  0.93025933  0.20490867  0.31560314  1.0
  Zr  Zr349  1  0.93025933  0.53824200  0.31560314  1.0
  Zr  Zr350  1  0.93025933  0.87157533  0.31560314  1.0
  Zr  Zr351  1  0.24428300  0.29548100  0.32387871  1.0
  Zr  Zr352  1  0.24428300  0.62881433  0.32387871  1.0
  Zr  Zr353  1  0.24428300  0.96214767  0.32387871  1.0
  Zr  Zr354  1  0.57761633  0.29548100  0.32387871  1.0
  Zr  Zr355  1  0.57761633  0.62881433  0.32387871  1.0
  Zr  Zr356  1  0.57761633  0.96214767  0.32387871  1.0
  Zr  Zr357  1  0.91094967  0.29548100  0.32387871  1.0
  Zr  Zr358  1  0.91094967  0.62881433  0.32387871  1.0
  Zr  Zr359  1  0.91094967  0.96214767  0.32387871  1.0
  Ni  Ni360  1  0.20609767  0.02601700  0.29318700  1.0
  Ni  Ni361  1  0.20609767  0.35935033  0.29318700  1.0
  Ni  Ni362  1  0.20609767  0.69268367  0.29318700  1.0
  Ni  Ni363  1  0.53943100  0.02601700  0.29318700  1.0
  Ni  Ni364  1  0.53943100  0.35935033  0.29318700  1.0
  Ni  Ni365  1  0.53943100  0.69268367  0.29318700  1.0
  Ni  Ni366  1  0.87276433  0.02601700  0.29318700  1.0
  Ni  Ni367  1  0.87276433  0.35935033  0.29318700  1.0
  Ni  Ni368  1  0.87276433  0.69268367  0.29318700  1.0
  Ni  Ni369  1  0.31589700  0.02601700  0.34024386  1.0
  Ni  Ni370  1  0.31589700  0.35935033  0.34024386  1.0
  Ni  Ni371  1  0.31589700  0.69268367  0.34024386  1.0
  Ni  Ni372  1  0.64923033  0.02601700  0.34024386  1.0
  Ni  Ni373  1  0.64923033  0.35935033  0.34024386  1.0
  Ni  Ni374  1  0.64923033  0.69268367  0.34024386  1.0
  Ni  Ni375  1  0.98256367  0.02601700  0.34024386  1.0
  Ni  Ni376  1  0.98256367  0.35935033  0.34024386  1.0
  Ni  Ni377  1  0.98256367  0.69268367  0.34024386  1.0
  Ni  Ni378  1  0.24348933  0.08326533  0.39502543  1.0
  Ni  Ni379  1  0.24348933  0.41659867  0.39502543  1.0
  Ni  Ni380  1  0.24348933  0.74993200  0.39502543  1.0
  Ni  Ni381  1  0.57682267  0.08326533  0.39502543  1.0
  Ni  Ni382  1  0.57682267  0.41659867  0.39502543  1.0
  Ni  Ni383  1  0.57682267  0.74993200  0.39502543  1.0
  Ni  Ni384  1  0.91015600  0.08326533  0.39502543  1.0
  Ni  Ni385  1  0.91015600  0.41659867  0.39502543  1.0
  Ni  Ni386  1  0.91015600  0.74993200  0.39502543  1.0
  Ni  Ni387  1  0.07827400  0.08326533  0.32421886  1.0
  Ni  Ni388  1  0.07827400  0.41659867  0.32421886  1.0
  Ni  Ni389  1  0.07827400  0.74993200  0.32421886  1.0
  Ni  Ni390  1  0.41160733  0.08326533  0.32421886  1.0
  Ni  Ni391  1  0.41160733  0.41659867  0.32421886  1.0
  Ni  Ni392  1  0.41160733  0.74993200  0.32421886  1.0
  Ni  Ni393  1  0.74494067  0.08326533  0.32421886  1.0
  Ni  Ni394  1  0.74494067  0.41659867  0.32421886  1.0
  Ni  Ni395  1  0.74494067  0.74993200  0.32421886  1.0
  Ni  Ni396  1  0.24632533  0.08346833  0.32300343  1.0
  Ni  Ni397  1  0.24632533  0.41680167  0.32300343  1.0
  Ni  Ni398  1  0.24632533  0.75013500  0.32300343  1.0
  Ni  Ni399  1  0.57965867  0.08346833  0.32300343  1.0
  Ni  Ni400  1  0.57965867  0.41680167  0.32300343  1.0
  Ni  Ni401  1  0.57965867  0.75013500  0.32300343  1.0
  Ni  Ni402  1  0.91299200  0.08346833  0.32300343  1.0
  Ni  Ni403  1  0.91299200  0.41680167  0.32300343  1.0
  Ni  Ni404  1  0.91299200  0.75013500  0.32300343  1.0
  Ni  Ni405  1  0.28706033  0.14065533  0.35312314  1.0
  Ni  Ni406  1  0.28706033  0.47398867  0.35312314  1.0
  Ni  Ni407  1  0.28706033  0.80732200  0.35312314  1.0
  Ni  Ni408  1  0.62039367  0.14065533  0.35312314  1.0
  Ni  Ni409  1  0.62039367  0.47398867  0.35312314  1.0
  Ni  Ni410  1  0.62039367  0.80732200  0.35312314  1.0
  Ni  Ni411  1  0.95372700  0.14065533  0.35312314  1.0
  Ni  Ni412  1  0.95372700  0.47398867  0.35312314  1.0
  Ni  Ni413  1  0.95372700  0.80732200  0.35312314  1.0
  Ni  Ni414  1  0.17604600  0.14065533  0.30554557  1.0
  Ni  Ni415  1  0.17604600  0.47398867  0.30554557  1.0
  Ni  Ni416  1  0.17604600  0.80732200  0.30554557  1.0
  Ni  Ni417  1  0.50937933  0.14065533  0.30554557  1.0
  Ni  Ni418  1  0.50937933  0.47398867  0.30554557  1.0
  Ni  Ni419  1  0.50937933  0.80732200  0.30554557  1.0
  Ni  Ni420  1  0.84271267  0.14065533  0.30554557  1.0
  Ni  Ni421  1  0.84271267  0.47398867  0.30554557  1.0
  Ni  Ni422  1  0.84271267  0.80732200  0.30554557  1.0
  Ni  Ni423  1  0.04627300  0.19267800  0.36116257  1.0
  Ni  Ni424  1  0.04627300  0.52601133  0.36116257  1.0
  Ni  Ni425  1  0.04627300  0.85934467  0.36116257  1.0
  Ni  Ni426  1  0.37960633  0.19267800  0.36116257  1.0
  Ni  Ni427  1  0.37960633  0.52601133  0.36116257  1.0
  Ni  Ni428  1  0.37960633  0.85934467  0.36116257  1.0
  Ni  Ni429  1  0.71293967  0.19267800  0.36116257  1.0
  Ni  Ni430  1  0.71293967  0.52601133  0.36116257  1.0
  Ni  Ni431  1  0.71293967  0.85934467  0.36116257  1.0
  Ni  Ni432  1  0.15728733  0.19267800  0.40874014  1.0
  Ni  Ni433  1  0.15728733  0.52601133  0.40874014  1.0
  Ni  Ni434  1  0.15728733  0.85934467  0.40874014  1.0
  Ni  Ni435  1  0.49062067  0.19267800  0.40874014  1.0
  Ni  Ni436  1  0.49062067  0.52601133  0.40874014  1.0
  Ni  Ni437  1  0.49062067  0.85934467  0.40874014  1.0
  Ni  Ni438  1  0.82395400  0.19267800  0.40874014  1.0
  Ni  Ni439  1  0.82395400  0.52601133  0.40874014  1.0
  Ni  Ni440  1  0.82395400  0.85934467  0.40874014  1.0
  Ni  Ni441  1  0.08700800  0.24986500  0.39128229  1.0
  Ni  Ni442  1  0.08700800  0.58319833  0.39128229  1.0
  Ni  Ni443  1  0.08700800  0.91653167  0.39128229  1.0
  Ni  Ni444  1  0.42034133  0.24986500  0.39128229  1.0
  Ni  Ni445  1  0.42034133  0.58319833  0.39128229  1.0
  Ni  Ni446  1  0.42034133  0.91653167  0.39128229  1.0
  Ni  Ni447  1  0.75367467  0.24986500  0.39128229  1.0
  Ni  Ni448  1  0.75367467  0.58319833  0.39128229  1.0
  Ni  Ni449  1  0.75367467  0.91653167  0.39128229  1.0
  Ni  Ni450  1  0.08984400  0.25006800  0.31926029  1.0
  Ni  Ni451  1  0.08984400  0.58340133  0.31926029  1.0
  Ni  Ni452  1  0.08984400  0.91673467  0.31926029  1.0
  Ni  Ni453  1  0.42317733  0.25006800  0.31926029  1.0
  Ni  Ni454  1  0.42317733  0.58340133  0.31926029  1.0
  Ni  Ni455  1  0.42317733  0.91673467  0.31926029  1.0
  Ni  Ni456  1  0.75651067  0.25006800  0.31926029  1.0
  Ni  Ni457  1  0.75651067  0.58340133  0.31926029  1.0
  Ni  Ni458  1  0.75651067  0.91673467  0.31926029  1.0
  Ni  Ni459  1  0.25505933  0.25006800  0.39006686  1.0
  Ni  Ni460  1  0.25505933  0.58340133  0.39006686  1.0
  Ni  Ni461  1  0.25505933  0.91673467  0.39006686  1.0
  Ni  Ni462  1  0.58839267  0.25006800  0.39006686  1.0
  Ni  Ni463  1  0.58839267  0.58340133  0.39006686  1.0
  Ni  Ni464  1  0.58839267  0.91673467  0.39006686  1.0
  Ni  Ni465  1  0.92172600  0.25006800  0.39006686  1.0
  Ni  Ni466  1  0.92172600  0.58340133  0.39006686  1.0
  Ni  Ni467  1  0.92172600  0.91673467  0.39006686  1.0
  Ni  Ni468  1  0.12723567  0.30731633  0.42109871  1.0
  Ni  Ni469  1  0.12723567  0.64064967  0.42109871  1.0
  Ni  Ni470  1  0.12723567  0.97398300  0.42109871  1.0
  Ni  Ni471  1  0.46056900  0.30731633  0.42109871  1.0
  Ni  Ni472  1  0.46056900  0.64064967  0.42109871  1.0
  Ni  Ni473  1  0.46056900  0.97398300  0.42109871  1.0
  Ni  Ni474  1  0.79390233  0.30731633  0.42109871  1.0
  Ni  Ni475  1  0.79390233  0.64064967  0.42109871  1.0
  Ni  Ni476  1  0.79390233  0.97398300  0.42109871  1.0
  Ni  Ni477  1  0.01743633  0.30731633  0.37404186  1.0
  Ni  Ni478  1  0.01743633  0.64064967  0.37404186  1.0
  Ni  Ni479  1  0.01743633  0.97398300  0.37404186  1.0
  Ni  Ni480  1  0.35076967  0.30731633  0.37404186  1.0
  Ni  Ni481  1  0.35076967  0.64064967  0.37404186  1.0
  Ni  Ni482  1  0.35076967  0.97398300  0.37404186  1.0
  Ni  Ni483  1  0.68410300  0.30731633  0.37404186  1.0
  Ni  Ni484  1  0.68410300  0.64064967  0.37404186  1.0
  Ni  Ni485  1  0.68410300  0.97398300  0.37404186  1.0
