# generated using pymatgen
data_Zr2Ni
_symmetry_space_group_name_H-M   'P 1'
_cell_length_a   27.60473312
_cell_length_b   25.10502802
_cell_length_c   79.50130020
_cell_angle_alpha   142.13445820
_cell_angle_beta   150.23388008
_cell_angle_gamma   56.64773915
_symmetry_Int_Tables_number   1
_chemical_formula_structural   Zr2Ni
_chemical_formula_sum   'Zr216 Ni108'
_cell_volume   15038.21392598
_cell_formula_units_Z   108
loop_
 _symmetry_equiv_pos_site_id
 _symmetry_equiv_pos_as_xyz
  1  'x, y, z'
loop_
 _atom_site_type_symbol
 _atom_site_label
 _atom_site_symmetry_multiplicity
 _atom_site_fract_x
 _atom_site_fract_y
 _atom_site_fract_z
 _atom_site_occupancy
  Zr  Zr0  1  0.22102000  0.27537333  0.03189067  1.0
  Zr  Zr1  1  0.22102000  0.60870667  0.03189067  1.0
  Zr  Zr2  1  0.22102000  0.94204000  0.03189067  1.0
  Zr  Zr3  1  0.55435333  0.27537333  0.03189067  1.0
  Zr  Zr4  1  0.55435333  0.60870667  0.03189067  1.0
  Zr  Zr5  1  0.55435333  0.94204000  0.03189067  1.0
  Zr  Zr6  1  0.88768667  0.27537333  0.03189067  1.0
  Zr  Zr7  1  0.88768667  0.60870667  0.03189067  1.0
  Zr  Zr8  1  0.88768667  0.94204000  0.03189067  1.0
  Zr  Zr9  1  0.11231333  0.05796000  0.01159200  1.0
  Zr  Zr10  1  0.11231333  0.39129333  0.01159200  1.0
  Zr  Zr11  1  0.11231333  0.72462667  0.01159200  1.0
  Zr  Zr12  1  0.44564667  0.05796000  0.01159200  1.0
  Zr  Zr13  1  0.44564667  0.39129333  0.01159200  1.0
  Zr  Zr14  1  0.44564667  0.72462667  0.01159200  1.0
  Zr  Zr15  1  0.77898000  0.05796000  0.01159200  1.0
  Zr  Zr16  1  0.77898000  0.39129333  0.01159200  1.0
  Zr  Zr17  1  0.77898000  0.72462667  0.01159200  1.0
  Zr  Zr18  1  0.27898000  0.16666667  0.05507467  1.0
  Zr  Zr19  1  0.27898000  0.50000000  0.05507467  1.0
  Zr  Zr20  1  0.27898000  0.83333333  0.05507467  1.0
  Zr  Zr21  1  0.61231333  0.16666667  0.05507467  1.0
  Zr  Zr22  1  0.61231333  0.50000000  0.05507467  1.0
  Zr  Zr23  1  0.61231333  0.83333333  0.05507467  1.0
  Zr  Zr24  1  0.94564667  0.16666667  0.05507467  1.0
  Zr  Zr25  1  0.94564667  0.50000000  0.05507467  1.0
  Zr  Zr26  1  0.94564667  0.83333333  0.05507467  1.0
  Zr  Zr27  1  0.05435333  0.16666667  0.05507467  1.0
  Zr  Zr28  1  0.05435333  0.50000000  0.05507467  1.0
  Zr  Zr29  1  0.05435333  0.83333333  0.05507467  1.0
  Zr  Zr30  1  0.38768667  0.16666667  0.05507467  1.0
  Zr  Zr31  1  0.38768667  0.50000000  0.05507467  1.0
  Zr  Zr32  1  0.38768667  0.83333333  0.05507467  1.0
  Zr  Zr33  1  0.72102000  0.16666667  0.05507467  1.0
  Zr  Zr34  1  0.72102000  0.50000000  0.05507467  1.0
  Zr  Zr35  1  0.72102000  0.83333333  0.05507467  1.0
  Ni  Ni36  1  0.25000000  0.33333333  0.02174133  1.0
  Ni  Ni37  1  0.25000000  0.66666667  0.02174133  1.0
  Ni  Ni38  1  0.25000000  1.00000000  0.02174133  1.0
  Ni  Ni39  1  0.58333333  0.33333333  0.02174133  1.0
  Ni  Ni40  1  0.58333333  0.66666667  0.02174133  1.0
  Ni  Ni41  1  0.58333333  1.00000000  0.02174133  1.0
  Ni  Ni42  1  0.91666667  0.33333333  0.02174133  1.0
  Ni  Ni43  1  0.91666667  0.66666667  0.02174133  1.0
  Ni  Ni44  1  0.91666667  1.00000000  0.02174133  1.0
  Ni  Ni45  1  0.08333333  0.00000000  0.02174133  1.0
  Ni  Ni46  1  0.08333333  0.33333333  0.02174133  1.0
  Ni  Ni47  1  0.08333333  0.66666667  0.02174133  1.0
  Ni  Ni48  1  0.41666667  0.00000000  0.02174133  1.0
  Ni  Ni49  1  0.41666667  0.33333333  0.02174133  1.0
  Ni  Ni50  1  0.41666667  0.66666667  0.02174133  1.0
  Ni  Ni51  1  0.75000000  0.00000000  0.02174133  1.0
  Ni  Ni52  1  0.75000000  0.33333333  0.02174133  1.0
  Ni  Ni53  1  0.75000000  0.66666667  0.02174133  1.0
  Zr  Zr54  1  0.22102000  0.27537333  0.09855733  1.0
  Zr  Zr55  1  0.22102000  0.60870667  0.09855733  1.0
  Zr  Zr56  1  0.22102000  0.94204000  0.09855733  1.0
  Zr  Zr57  1  0.55435333  0.27537333  0.09855733  1.0
  Zr  Zr58  1  0.55435333  0.60870667  0.09855733  1.0
  Zr  Zr59  1  0.55435333  0.94204000  0.09855733  1.0
  Zr  Zr60  1  0.88768667  0.27537333  0.09855733  1.0
  Zr  Zr61  1  0.88768667  0.60870667  0.09855733  1.0
  Zr  Zr62  1  0.88768667  0.94204000  0.09855733  1.0
  Zr  Zr63  1  0.11231333  0.05796000  0.07825867  1.0
  Zr  Zr64  1  0.11231333  0.39129333  0.07825867  1.0
  Zr  Zr65  1  0.11231333  0.72462667  0.07825867  1.0
  Zr  Zr66  1  0.44564667  0.05796000  0.07825867  1.0
  Zr  Zr67  1  0.44564667  0.39129333  0.07825867  1.0
  Zr  Zr68  1  0.44564667  0.72462667  0.07825867  1.0
  Zr  Zr69  1  0.77898000  0.05796000  0.07825867  1.0
  Zr  Zr70  1  0.77898000  0.39129333  0.07825867  1.0
  Zr  Zr71  1  0.77898000  0.72462667  0.07825867  1.0
  Zr  Zr72  1  0.27898000  0.16666667  0.12174133  1.0
  Zr  Zr73  1  0.27898000  0.50000000  0.12174133  1.0
  Zr  Zr74  1  0.27898000  0.83333333  0.12174133  1.0
  Zr  Zr75  1  0.61231333  0.16666667  0.12174133  1.0
  Zr  Zr76  1  0.61231333  0.50000000  0.12174133  1.0
  Zr  Zr77  1  0.61231333  0.83333333  0.12174133  1.0
  Zr  Zr78  1  0.94564667  0.16666667  0.12174133  1.0
  Zr  Zr79  1  0.94564667  0.50000000  0.12174133  1.0
  Zr  Zr80  1  0.94564667  0.83333333  0.12174133  1.0
  Zr  Zr81  1  0.05435333  0.16666667  0.12174133  1.0
  Zr  Zr82  1  0.05435333  0.50000000  0.12174133  1.0
  Zr  Zr83  1  0.05435333  0.83333333  0.12174133  1.0
  Zr  Zr84  1  0.38768667  0.16666667  0.12174133  1.0
  Zr  Zr85  1  0.38768667  0.50000000  0.12174133  1.0
  Zr  Zr86  1  0.38768667  0.83333333  0.12174133  1.0
  Zr  Zr87  1  0.72102000  0.16666667  0.12174133  1.0
  Zr  Zr88  1  0.72102000  0.50000000  0.12174133  1.0
  Zr  Zr89  1  0.72102000  0.83333333  0.12174133  1.0
  Ni  Ni90  1  0.25000000  0.33333333  0.08840800  1.0
  Ni  Ni91  1  0.25000000  0.66666667  0.08840800  1.0
  Ni  Ni92  1  0.25000000  1.00000000  0.08840800  1.0
  Ni  Ni93  1  0.58333333  0.33333333  0.08840800  1.0
  Ni  Ni94  1  0.58333333  0.66666667  0.08840800  1.0
  Ni  Ni95  1  0.58333333  1.00000000  0.08840800  1.0
  Ni  Ni96  1  0.91666667  0.33333333  0.08840800  1.0
  Ni  Ni97  1  0.91666667  0.66666667  0.08840800  1.0
  Ni  Ni98  1  0.91666667  1.00000000  0.08840800  1.0
  Ni  Ni99  1  0.08333333  0.00000000  0.08840800  1.0
  Ni  Ni100  1  0.08333333  0.33333333  0.08840800  1.0
  Ni  Ni101  1  0.08333333  0.66666667  0.08840800  1.0
  Ni  Ni102  1  0.41666667  0.00000000  0.08840800  1.0
  Ni  Ni103  1  0.41666667  0.33333333  0.08840800  1.0
  Ni  Ni104  1  0.41666667  0.66666667  0.08840800  1.0
  Ni  Ni105  1  0.75000000  0.00000000  0.08840800  1.0
  Ni  Ni106  1  0.75000000  0.33333333  0.08840800  1.0
  Ni  Ni107  1  0.75000000  0.66666667  0.08840800  1.0
  Zr  Zr108  1  0.22102000  0.27537333  0.16522400  1.0
  Zr  Zr109  1  0.22102000  0.60870667  0.16522400  1.0
  Zr  Zr110  1  0.22102000  0.94204000  0.16522400  1.0
  Zr  Zr111  1  0.55435333  0.27537333  0.16522400  1.0
  Zr  Zr112  1  0.55435333  0.60870667  0.16522400  1.0
  Zr  Zr113  1  0.55435333  0.94204000  0.16522400  1.0
  Zr  Zr114  1  0.88768667  0.27537333  0.16522400  1.0
  Zr  Zr115  1  0.88768667  0.60870667  0.16522400  1.0
  Zr  Zr116  1  0.88768667  0.94204000  0.16522400  1.0
  Zr  Zr117  1  0.11231333  0.05796000  0.14492533  1.0
  Zr  Zr118  1  0.11231333  0.39129333  0.14492533  1.0
  Zr  Zr119  1  0.11231333  0.72462667  0.14492533  1.0
  Zr  Zr120  1  0.44564667  0.05796000  0.14492533  1.0
  Zr  Zr121  1  0.44564667  0.39129333  0.14492533  1.0
  Zr  Zr122  1  0.44564667  0.72462667  0.14492533  1.0
  Zr  Zr123  1  0.77898000  0.05796000  0.14492533  1.0
  Zr  Zr124  1  0.77898000  0.39129333  0.14492533  1.0
  Zr  Zr125  1  0.77898000  0.72462667  0.14492533  1.0
  Zr  Zr126  1  0.27898000  0.16666667  0.18840800  1.0
  Zr  Zr127  1  0.27898000  0.50000000  0.18840800  1.0
  Zr  Zr128  1  0.27898000  0.83333333  0.18840800  1.0
  Zr  Zr129  1  0.61231333  0.16666667  0.18840800  1.0
  Zr  Zr130  1  0.61231333  0.50000000  0.18840800  1.0
  Zr  Zr131  1  0.61231333  0.83333333  0.18840800  1.0
  Zr  Zr132  1  0.94564667  0.16666667  0.18840800  1.0
  Zr  Zr133  1  0.94564667  0.50000000  0.18840800  1.0
  Zr  Zr134  1  0.94564667  0.83333333  0.18840800  1.0
  Zr  Zr135  1  0.05435333  0.16666667  0.18840800  1.0
  Zr  Zr136  1  0.05435333  0.50000000  0.18840800  1.0
  Zr  Zr137  1  0.05435333  0.83333333  0.18840800  1.0
  Zr  Zr138  1  0.38768667  0.16666667  0.18840800  1.0
  Zr  Zr139  1  0.38768667  0.50000000  0.18840800  1.0
  Zr  Zr140  1  0.38768667  0.83333333  0.18840800  1.0
  Zr  Zr141  1  0.72102000  0.16666667  0.18840800  1.0
  Zr  Zr142  1  0.72102000  0.50000000  0.18840800  1.0
  Zr  Zr143  1  0.72102000  0.83333333  0.18840800  1.0
  Ni  Ni144  1  0.25000000  0.33333333  0.15507467  1.0
  Ni  Ni145  1  0.25000000  0.66666667  0.15507467  1.0
  Ni  Ni146  1  0.25000000  1.00000000  0.15507467  1.0
  Ni  Ni147  1  0.58333333  0.33333333  0.15507467  1.0
  Ni  Ni148  1  0.58333333  0.66666667  0.15507467  1.0
  Ni  Ni149  1  0.58333333  1.00000000  0.15507467  1.0
  Ni  Ni150  1  0.91666667  0.33333333  0.15507467  1.0
  Ni  Ni151  1  0.91666667  0.66666667  0.15507467  1.0
  Ni  Ni152  1  0.91666667  1.00000000  0.15507467  1.0
  Ni  Ni153  1  0.08333333  0.00000000  0.15507467  1.0
  Ni  Ni154  1  0.08333333  0.33333333  0.15507467  1.0
  Ni  Ni155  1  0.08333333  0.66666667  0.15507467  1.0
  Ni  Ni156  1  0.41666667  0.00000000  0.15507467  1.0
  Ni  Ni157  1  0.41666667  0.33333333  0.15507467  1.0
  Ni  Ni158  1  0.41666667  0.66666667  0.15507467  1.0
  Ni  Ni159  1  0.75000000  0.00000000  0.15507467  1.0
  Ni  Ni160  1  0.75000000  0.33333333  0.15507467  1.0
  Ni  Ni161  1  0.75000000  0.66666667  0.15507467  1.0
  Zr  Zr162  1  0.22102000  0.27537333  0.23189067  1.0
  Zr  Zr163  1  0.22102000  0.60870667  0.23189067  1.0
  Zr  Zr164  1  0.22102000  0.94204000  0.23189067  1.0
  Zr  Zr165  1  0.55435333  0.27537333  0.23189067  1.0
  Zr  Zr166  1  0.55435333  0.60870667  0.23189067  1.0
  Zr  Zr167  1  0.55435333  0.94204000  0.23189067  1.0
  Zr  Zr168  1  0.88768667  0.27537333  0.23189067  1.0
  Zr  Zr169  1  0.88768667  0.60870667  0.23189067  1.0
  Zr  Zr170  1  0.88768667  0.94204000  0.23189067  1.0
  Zr  Zr171  1  0.11231333  0.05796000  0.21159200  1.0
  Zr  Zr172  1  0.11231333  0.39129333  0.21159200  1.0
  Zr  Zr173  1  0.11231333  0.72462667  0.21159200  1.0
  Zr  Zr174  1  0.44564667  0.05796000  0.21159200  1.0
  Zr  Zr175  1  0.44564667  0.39129333  0.21159200  1.0
  Zr  Zr176  1  0.44564667  0.72462667  0.21159200  1.0
  Zr  Zr177  1  0.77898000  0.05796000  0.21159200  1.0
  Zr  Zr178  1  0.77898000  0.39129333  0.21159200  1.0
  Zr  Zr179  1  0.77898000  0.72462667  0.21159200  1.0
  Zr  Zr180  1  0.27898000  0.16666667  0.25507467  1.0
  Zr  Zr181  1  0.27898000  0.50000000  0.25507467  1.0
  Zr  Zr182  1  0.27898000  0.83333333  0.25507467  1.0
  Zr  Zr183  1  0.61231333  0.16666667  0.25507467  1.0
  Zr  Zr184  1  0.61231333  0.50000000  0.25507467  1.0
  Zr  Zr185  1  0.61231333  0.83333333  0.25507467  1.0
  Zr  Zr186  1  0.94564667  0.16666667  0.25507467  1.0
  Zr  Zr187  1  0.94564667  0.50000000  0.25507467  1.0
  Zr  Zr188  1  0.94564667  0.83333333  0.25507467  1.0
  Zr  Zr189  1  0.05435333  0.16666667  0.25507467  1.0
  Zr  Zr190  1  0.05435333  0.50000000  0.25507467  1.0
  Zr  Zr191  1  0.05435333  0.83333333  0.25507467  1.0
  Zr  Zr192  1  0.38768667  0.16666667  0.25507467  1.0
  Zr  Zr193  1  0.38768667  0.50000000  0.25507467  1.0
  Zr  Zr194  1  0.38768667  0.83333333  0.25507467  1.0
  Zr  Zr195  1  0.72102000  0.16666667  0.25507467  1.0
  Zr  Zr196  1  0.72102000  0.50000000  0.25507467  1.0
  Zr  Zr197  1  0.72102000  0.83333333  0.25507467  1.0
  Ni  Ni198  1  0.25000000  0.33333333  0.22174133  1.0
  Ni  Ni199  1  0.25000000  0.66666667  0.22174133  1.0
  Ni  Ni200  1  0.25000000  1.00000000  0.22174133  1.0
  Ni  Ni201  1  0.58333333  0.33333333  0.22174133  1.0
  Ni  Ni202  1  0.58333333  0.66666667  0.22174133  1.0
  Ni  Ni203  1  0.58333333  1.00000000  0.22174133  1.0
  Ni  Ni204  1  0.91666667  0.33333333  0.22174133  1.0
  Ni  Ni205  1  0.91666667  0.66666667  0.22174133  1.0
  Ni  Ni206  1  0.91666667  1.00000000  0.22174133  1.0
  Ni  Ni207  1  0.08333333  0.00000000  0.22174133  1.0
  Ni  Ni208  1  0.08333333  0.33333333  0.22174133  1.0
  Ni  Ni209  1  0.08333333  0.66666667  0.22174133  1.0
  Ni  Ni210  1  0.41666667  0.00000000  0.22174133  1.0
  Ni  Ni211  1  0.41666667  0.33333333  0.22174133  1.0
  Ni  Ni212  1  0.41666667  0.66666667  0.22174133  1.0
  Ni  Ni213  1  0.75000000  0.00000000  0.22174133  1.0
  Ni  Ni214  1  0.75000000  0.33333333  0.22174133  1.0
  Ni  Ni215  1  0.75000000  0.66666667  0.22174133  1.0
  Zr  Zr216  1  0.22102000  0.27537333  0.29855733  1.0
  Zr  Zr217  1  0.22102000  0.60870667  0.29855733  1.0
  Zr  Zr218  1  0.22102000  0.94204000  0.29855733  1.0
  Zr  Zr219  1  0.55435333  0.27537333  0.29855733  1.0
  Zr  Zr220  1  0.55435333  0.60870667  0.29855733  1.0
  Zr  Zr221  1  0.55435333  0.94204000  0.29855733  1.0
  Zr  Zr222  1  0.88768667  0.27537333  0.29855733  1.0
  Zr  Zr223  1  0.88768667  0.60870667  0.29855733  1.0
  Zr  Zr224  1  0.88768667  0.94204000  0.29855733  1.0
  Zr  Zr225  1  0.11231333  0.05796000  0.27825867  1.0
  Zr  Zr226  1  0.11231333  0.39129333  0.27825867  1.0
  Zr  Zr227  1  0.11231333  0.72462667  0.27825867  1.0
  Zr  Zr228  1  0.44564667  0.05796000  0.27825867  1.0
  Zr  Zr229  1  0.44564667  0.39129333  0.27825867  1.0
  Zr  Zr230  1  0.44564667  0.72462667  0.27825867  1.0
  Zr  Zr231  1  0.77898000  0.05796000  0.27825867  1.0
  Zr  Zr232  1  0.77898000  0.39129333  0.27825867  1.0
  Zr  Zr233  1  0.77898000  0.72462667  0.27825867  1.0
  Zr  Zr234  1  0.27898000  0.16666667  0.32174133  1.0
  Zr  Zr235  1  0.27898000  0.50000000  0.32174133  1.0
  Zr  Zr236  1  0.27898000  0.83333333  0.32174133  1.0
  Zr  Zr237  1  0.61231333  0.16666667  0.32174133  1.0
  Zr  Zr238  1  0.61231333  0.50000000  0.32174133  1.0
  Zr  Zr239  1  0.61231333  0.83333333  0.32174133  1.0
  Zr  Zr240  1  0.94564667  0.16666667  0.32174133  1.0
  Zr  Zr241  1  0.94564667  0.50000000  0.32174133  1.0
  Zr  Zr242  1  0.94564667  0.83333333  0.32174133  1.0
  Zr  Zr243  1  0.05435333  0.16666667  0.32174133  1.0
  Zr  Zr244  1  0.05435333  0.50000000  0.32174133  1.0
  Zr  Zr245  1  0.05435333  0.83333333  0.32174133  1.0
  Zr  Zr246  1  0.38768667  0.16666667  0.32174133  1.0
  Zr  Zr247  1  0.38768667  0.50000000  0.32174133  1.0
  Zr  Zr248  1  0.38768667  0.83333333  0.32174133  1.0
  Zr  Zr249  1  0.72102000  0.16666667  0.32174133  1.0
  Zr  Zr250  1  0.72102000  0.50000000  0.32174133  1.0
  Zr  Zr251  1  0.72102000  0.83333333  0.32174133  1.0
  Ni  Ni252  1  0.25000000  0.33333333  0.28840800  1.0
  Ni  Ni253  1  0.25000000  0.66666667  0.28840800  1.0
  Ni  Ni254  1  0.25000000  1.00000000  0.28840800  1.0
  Ni  Ni255  1  0.58333333  0.33333333  0.28840800  1.0
  Ni  Ni256  1  0.58333333  0.66666667  0.28840800  1.0
  Ni  Ni257  1  0.58333333  1.00000000  0.28840800  1.0
  Ni  Ni258  1  0.91666667  0.33333333  0.28840800  1.0
  Ni  Ni259  1  0.91666667  0.66666667  0.28840800  1.0
  Ni  Ni260  1  0.91666667  1.00000000  0.28840800  1.0
  Ni  Ni261  1  0.08333333  0.00000000  0.28840800  1.0
  Ni  Ni262  1  0.08333333  0.33333333  0.28840800  1.0
  Ni  Ni263  1  0.08333333  0.66666667  0.28840800  1.0
  Ni  Ni264  1  0.41666667  0.00000000  0.28840800  1.0
  Ni  Ni265  1  0.41666667  0.33333333  0.28840800  1.0
  Ni  Ni266  1  0.41666667  0.66666667  0.28840800  1.0
  Ni  Ni267  1  0.75000000  0.00000000  0.28840800  1.0
  Ni  Ni268  1  0.75000000  0.33333333  0.28840800  1.0
  Ni  Ni269  1  0.75000000  0.66666667  0.28840800  1.0
  Zr  Zr270  1  0.22102000  0.27537333  0.36522400  1.0
  Zr  Zr271  1  0.22102000  0.60870667  0.36522400  1.0
  Zr  Zr272  1  0.22102000  0.94204000  0.36522400  1.0
  Zr  Zr273  1  0.55435333  0.27537333  0.36522400  1.0
  Zr  Zr274  1  0.55435333  0.60870667  0.36522400  1.0
  Zr  Zr275  1  0.55435333  0.94204000  0.36522400  1.0
  Zr  Zr276  1  0.88768667  0.27537333  0.36522400  1.0
  Zr  Zr277  1  0.88768667  0.60870667  0.36522400  1.0
  Zr  Zr278  1  0.88768667  0.94204000  0.36522400  1.0
  Zr  Zr279  1  0.11231333  0.05796000  0.34492533  1.0
  Zr  Zr280  1  0.11231333  0.39129333  0.34492533  1.0
  Zr  Zr281  1  0.11231333  0.72462667  0.34492533  1.0
  Zr  Zr282  1  0.44564667  0.05796000  0.34492533  1.0
  Zr  Zr283  1  0.44564667  0.39129333  0.34492533  1.0
  Zr  Zr284  1  0.44564667  0.72462667  0.34492533  1.0
  Zr  Zr285  1  0.77898000  0.05796000  0.34492533  1.0
  Zr  Zr286  1  0.77898000  0.39129333  0.34492533  1.0
  Zr  Zr287  1  0.77898000  0.72462667  0.34492533  1.0
  Zr  Zr288  1  0.27898000  0.16666667  0.38840800  1.0
  Zr  Zr289  1  0.27898000  0.50000000  0.38840800  1.0
  Zr  Zr290  1  0.27898000  0.83333333  0.38840800  1.0
  Zr  Zr291  1  0.61231333  0.16666667  0.38840800  1.0
  Zr  Zr292  1  0.61231333  0.50000000  0.38840800  1.0
  Zr  Zr293  1  0.61231333  0.83333333  0.38840800  1.0
  Zr  Zr294  1  0.94564667  0.16666667  0.38840800  1.0
  Zr  Zr295  1  0.94564667  0.50000000  0.38840800  1.0
  Zr  Zr296  1  0.94564667  0.83333333  0.38840800  1.0
  Zr  Zr297  1  0.05435333  0.16666667  0.38840800  1.0
  Zr  Zr298  1  0.05435333  0.50000000  0.38840800  1.0
  Zr  Zr299  1  0.05435333  0.83333333  0.38840800  1.0
  Zr  Zr300  1  0.38768667  0.16666667  0.38840800  1.0
  Zr  Zr301  1  0.38768667  0.50000000  0.38840800  1.0
  Zr  Zr302  1  0.38768667  0.83333333  0.38840800  1.0
  Zr  Zr303  1  0.72102000  0.16666667  0.38840800  1.0
  Zr  Zr304  1  0.72102000  0.50000000  0.38840800  1.0
  Zr  Zr305  1  0.72102000  0.83333333  0.38840800  1.0
  Ni  Ni306  1  0.25000000  0.33333333  0.35507467  1.0
  Ni  Ni307  1  0.25000000  0.66666667  0.35507467  1.0
  Ni  Ni308  1  0.25000000  1.00000000  0.35507467  1.0
  Ni  Ni309  1  0.58333333  0.33333333  0.35507467  1.0
  Ni  Ni310  1  0.58333333  0.66666667  0.35507467  1.0
  Ni  Ni311  1  0.58333333  1.00000000  0.35507467  1.0
  Ni  Ni312  1  0.91666667  0.33333333  0.35507467  1.0
  Ni  Ni313  1  0.91666667  0.66666667  0.35507467  1.0
  Ni  Ni314  1  0.91666667  1.00000000  0.35507467  1.0
  Ni  Ni315  1  0.08333333  0.00000000  0.35507467  1.0
  Ni  Ni316  1  0.08333333  0.33333333  0.35507467  1.0
  Ni  Ni317  1  0.08333333  0.66666667  0.35507467  1.0
  Ni  Ni318  1  0.41666667  0.00000000  0.35507467  1.0
  Ni  Ni319  1  0.41666667  0.33333333  0.35507467  1.0
  Ni  Ni320  1  0.41666667  0.66666667  0.35507467  1.0
  Ni  Ni321  1  0.75000000  0.00000000  0.35507467  1.0
  Ni  Ni322  1  0.75000000  0.33333333  0.35507467  1.0
  Ni  Ni323  1  0.75000000  0.66666667  0.35507467  1.0
