# generated using pymatgen
data_Zr2Ni7
_symmetry_space_group_name_H-M   'P 1'
_cell_length_a   22.01280122
_cell_length_b   24.45644965
_cell_length_c   29.46588631
_cell_angle_alpha   83.52535521
_cell_angle_beta   84.11880778
_cell_angle_gamma   69.23566487
_symmetry_Int_Tables_number   1
_chemical_formula_structural   Zr2Ni7
_chemical_formula_sum   'Zr108 Ni378'
_cell_volume   14704.76403974
_cell_formula_units_Z   54
loop_
 _symmetry_equiv_pos_site_id
 _symmetry_equiv_pos_as_xyz
  1  'x, y, z'
loop_
 _atom_site_type_symbol
 _atom_site_label
 _atom_site_symmetry_multiplicity
 _atom_site_fract_x
 _atom_site_fract_y
 _atom_site_fract_z
 _atom_site_occupancy
  Ni  Ni0  1  0.18145724  0.07593805  0.02218586  1.0
  Ni  Ni1  1  0.18145724  0.40927138  0.02218586  1.0
  Ni  Ni2  1  0.18145724  0.74260471  0.02218586  1.0
  Ni  Ni3  1  0.51479057  0.07593805  0.02218586  1.0
  Ni  Ni4  1  0.51479057  0.40927138  0.02218586  1.0
  Ni  Ni5  1  0.51479057  0.74260471  0.02218586  1.0
  Ni  Ni6  1  0.84812390  0.07593805  0.02218586  1.0
  Ni  Ni7  1  0.84812390  0.40927138  0.02218586  1.0
  Ni  Ni8  1  0.84812390  0.74260471  0.02218586  1.0
  Ni  Ni9  1  0.22907629  0.21879519  0.09361443  1.0
  Ni  Ni10  1  0.22907629  0.55212852  0.09361443  1.0
  Ni  Ni11  1  0.22907629  0.88546186  0.09361443  1.0
  Ni  Ni12  1  0.56240962  0.21879519  0.09361443  1.0
  Ni  Ni13  1  0.56240962  0.55212852  0.09361443  1.0
  Ni  Ni14  1  0.56240962  0.88546186  0.09361443  1.0
  Ni  Ni15  1  0.89574295  0.21879519  0.09361443  1.0
  Ni  Ni16  1  0.89574295  0.55212852  0.09361443  1.0
  Ni  Ni17  1  0.89574295  0.88546186  0.09361443  1.0
  Ni  Ni18  1  0.11323624  0.22799105  0.09164986  1.0
  Ni  Ni19  1  0.11323624  0.56132438  0.09164986  1.0
  Ni  Ni20  1  0.11323624  0.89465771  0.09164986  1.0
  Ni  Ni21  1  0.44656957  0.22799105  0.09164986  1.0
  Ni  Ni22  1  0.44656957  0.56132438  0.09164986  1.0
  Ni  Ni23  1  0.44656957  0.89465771  0.09164986  1.0
  Ni  Ni24  1  0.77990290  0.22799105  0.09164986  1.0
  Ni  Ni25  1  0.77990290  0.56132438  0.09164986  1.0
  Ni  Ni26  1  0.77990290  0.89465771  0.09164986  1.0
  Ni  Ni27  1  0.06561719  0.08513390  0.02022129  1.0
  Ni  Ni28  1  0.06561719  0.41846724  0.02022129  1.0
  Ni  Ni29  1  0.06561719  0.75180057  0.02022129  1.0
  Ni  Ni30  1  0.39895052  0.08513390  0.02022129  1.0
  Ni  Ni31  1  0.39895052  0.41846724  0.02022129  1.0
  Ni  Ni32  1  0.39895052  0.75180057  0.02022129  1.0
  Ni  Ni33  1  0.73228386  0.08513390  0.02022129  1.0
  Ni  Ni34  1  0.73228386  0.41846724  0.02022129  1.0
  Ni  Ni35  1  0.73228386  0.75180057  0.02022129  1.0
  Ni  Ni36  1  0.29752776  0.17800695  0.02449614  1.0
  Ni  Ni37  1  0.29752776  0.51134029  0.02449614  1.0
  Ni  Ni38  1  0.29752776  0.84467362  0.02449614  1.0
  Ni  Ni39  1  0.63086110  0.17800695  0.02449614  1.0
  Ni  Ni40  1  0.63086110  0.51134029  0.02449614  1.0
  Ni  Ni41  1  0.63086110  0.84467362  0.02449614  1.0
  Ni  Ni42  1  0.96419443  0.17800695  0.02449614  1.0
  Ni  Ni43  1  0.96419443  0.51134029  0.02449614  1.0
  Ni  Ni44  1  0.96419443  0.84467362  0.02449614  1.0
  Ni  Ni45  1  0.01181348  0.32086410  0.09592471  1.0
  Ni  Ni46  1  0.01181348  0.65419743  0.09592471  1.0
  Ni  Ni47  1  0.01181348  0.98753076  0.09592471  1.0
  Ni  Ni48  1  0.34514681  0.32086410  0.09592471  1.0
  Ni  Ni49  1  0.34514681  0.65419743  0.09592471  1.0
  Ni  Ni50  1  0.34514681  0.98753076  0.09592471  1.0
  Ni  Ni51  1  0.67848014  0.32086410  0.09592471  1.0
  Ni  Ni52  1  0.67848014  0.65419743  0.09592471  1.0
  Ni  Ni53  1  0.67848014  0.98753076  0.09592471  1.0
  Ni  Ni54  1  0.29729729  0.06674219  0.02415043  1.0
  Ni  Ni55  1  0.29729729  0.40007552  0.02415043  1.0
  Ni  Ni56  1  0.29729729  0.73340886  0.02415043  1.0
  Ni  Ni57  1  0.63063062  0.06674219  0.02415043  1.0
  Ni  Ni58  1  0.63063062  0.40007552  0.02415043  1.0
  Ni  Ni59  1  0.63063062  0.73340886  0.02415043  1.0
  Ni  Ni60  1  0.96396395  0.06674219  0.02415043  1.0
  Ni  Ni61  1  0.96396395  0.40007552  0.02415043  1.0
  Ni  Ni62  1  0.96396395  0.73340886  0.02415043  1.0
  Ni  Ni63  1  0.01158300  0.20959933  0.09557900  1.0
  Ni  Ni64  1  0.01158300  0.54293267  0.09557900  1.0
  Ni  Ni65  1  0.01158300  0.87626600  0.09557900  1.0
  Ni  Ni66  1  0.34491633  0.20959933  0.09557900  1.0
  Ni  Ni67  1  0.34491633  0.54293267  0.09557900  1.0
  Ni  Ni68  1  0.34491633  0.87626600  0.09557900  1.0
  Ni  Ni69  1  0.67824967  0.20959933  0.09557900  1.0
  Ni  Ni70  1  0.67824967  0.54293267  0.09557900  1.0
  Ni  Ni71  1  0.67824967  0.87626600  0.09557900  1.0
  Ni  Ni72  1  0.11300576  0.11672629  0.09130414  1.0
  Ni  Ni73  1  0.11300576  0.45005962  0.09130414  1.0
  Ni  Ni74  1  0.11300576  0.78339295  0.09130414  1.0
  Ni  Ni75  1  0.44633910  0.11672629  0.09130414  1.0
  Ni  Ni76  1  0.44633910  0.45005962  0.09130414  1.0
  Ni  Ni77  1  0.44633910  0.78339295  0.09130414  1.0
  Ni  Ni78  1  0.77967243  0.11672629  0.09130414  1.0
  Ni  Ni79  1  0.77967243  0.45005962  0.09130414  1.0
  Ni  Ni80  1  0.77967243  0.78339295  0.09130414  1.0
  Ni  Ni81  1  0.06538671  0.30720248  0.01987557  1.0
  Ni  Ni82  1  0.06538671  0.64053581  0.01987557  1.0
  Ni  Ni83  1  0.06538671  0.97386914  0.01987557  1.0
  Ni  Ni84  1  0.39872005  0.30720248  0.01987557  1.0
  Ni  Ni85  1  0.39872005  0.64053581  0.01987557  1.0
  Ni  Ni86  1  0.39872005  0.97386914  0.01987557  1.0
  Ni  Ni87  1  0.73205338  0.30720248  0.01987557  1.0
  Ni  Ni88  1  0.73205338  0.64053581  0.01987557  1.0
  Ni  Ni89  1  0.73205338  0.97386914  0.01987557  1.0
  Ni  Ni90  1  0.20526676  0.14736662  0.05790014  1.0
  Ni  Ni91  1  0.20526676  0.48069995  0.05790014  1.0
  Ni  Ni92  1  0.20526676  0.81403329  0.05790014  1.0
  Ni  Ni93  1  0.53860010  0.14736662  0.05790014  1.0
  Ni  Ni94  1  0.53860010  0.48069995  0.05790014  1.0
  Ni  Ni95  1  0.53860010  0.81403329  0.05790014  1.0
  Ni  Ni96  1  0.87193343  0.14736662  0.05790014  1.0
  Ni  Ni97  1  0.87193343  0.48069995  0.05790014  1.0
  Ni  Ni98  1  0.87193343  0.81403329  0.05790014  1.0
  Ni  Ni99  1  0.25288581  0.29022376  0.12932871  1.0
  Ni  Ni100  1  0.25288581  0.62355710  0.12932871  1.0
  Ni  Ni101  1  0.25288581  0.95689043  0.12932871  1.0
  Ni  Ni102  1  0.58621914  0.29022376  0.12932871  1.0
  Ni  Ni103  1  0.58621914  0.62355710  0.12932871  1.0
  Ni  Ni104  1  0.58621914  0.95689043  0.12932871  1.0
  Ni  Ni105  1  0.91955248  0.29022376  0.12932871  1.0
  Ni  Ni106  1  0.91955248  0.62355710  0.12932871  1.0
  Ni  Ni107  1  0.91955248  0.95689043  0.12932871  1.0
  Ni  Ni108  1  0.22907629  0.05212852  0.09361443  1.0
  Ni  Ni109  1  0.22907629  0.38546186  0.09361443  1.0
  Ni  Ni110  1  0.22907629  0.71879519  0.09361443  1.0
  Ni  Ni111  1  0.56240962  0.05212852  0.09361443  1.0
  Ni  Ni112  1  0.56240962  0.38546186  0.09361443  1.0
  Ni  Ni113  1  0.56240962  0.71879519  0.09361443  1.0
  Ni  Ni114  1  0.89574295  0.05212852  0.09361443  1.0
  Ni  Ni115  1  0.89574295  0.38546186  0.09361443  1.0
  Ni  Ni116  1  0.89574295  0.71879519  0.09361443  1.0
  Ni  Ni117  1  0.18145724  0.24260471  0.02218586  1.0
  Ni  Ni118  1  0.18145724  0.57593805  0.02218586  1.0
  Ni  Ni119  1  0.18145724  0.90927138  0.02218586  1.0
  Ni  Ni120  1  0.51479057  0.24260471  0.02218586  1.0
  Ni  Ni121  1  0.51479057  0.57593805  0.02218586  1.0
  Ni  Ni122  1  0.51479057  0.90927138  0.02218586  1.0
  Ni  Ni123  1  0.84812390  0.24260471  0.02218586  1.0
  Ni  Ni124  1  0.84812390  0.57593805  0.02218586  1.0
  Ni  Ni125  1  0.84812390  0.90927138  0.02218586  1.0
  Ni  Ni126  1  0.27669533  0.02831900  0.16504300  1.0
  Ni  Ni127  1  0.27669533  0.36165233  0.16504300  1.0
  Ni  Ni128  1  0.27669533  0.69498567  0.16504300  1.0
  Ni  Ni129  1  0.61002867  0.02831900  0.16504300  1.0
  Ni  Ni130  1  0.61002867  0.36165233  0.16504300  1.0
  Ni  Ni131  1  0.61002867  0.69498567  0.16504300  1.0
  Ni  Ni132  1  0.94336200  0.02831900  0.16504300  1.0
  Ni  Ni133  1  0.94336200  0.36165233  0.16504300  1.0
  Ni  Ni134  1  0.94336200  0.69498567  0.16504300  1.0
  Ni  Ni135  1  0.32431438  0.17117614  0.23647157  1.0
  Ni  Ni136  1  0.32431438  0.50450948  0.23647157  1.0
  Ni  Ni137  1  0.32431438  0.83784281  0.23647157  1.0
  Ni  Ni138  1  0.65764771  0.17117614  0.23647157  1.0
  Ni  Ni139  1  0.65764771  0.50450948  0.23647157  1.0
  Ni  Ni140  1  0.65764771  0.83784281  0.23647157  1.0
  Ni  Ni141  1  0.99098105  0.17117614  0.23647157  1.0
  Ni  Ni142  1  0.99098105  0.50450948  0.23647157  1.0
  Ni  Ni143  1  0.99098105  0.83784281  0.23647157  1.0
  Ni  Ni144  1  0.20847433  0.18037200  0.23450700  1.0
  Ni  Ni145  1  0.20847433  0.51370533  0.23450700  1.0
  Ni  Ni146  1  0.20847433  0.84703867  0.23450700  1.0
  Ni  Ni147  1  0.54180767  0.18037200  0.23450700  1.0
  Ni  Ni148  1  0.54180767  0.51370533  0.23450700  1.0
  Ni  Ni149  1  0.54180767  0.84703867  0.23450700  1.0
  Ni  Ni150  1  0.87514100  0.18037200  0.23450700  1.0
  Ni  Ni151  1  0.87514100  0.51370533  0.23450700  1.0
  Ni  Ni152  1  0.87514100  0.84703867  0.23450700  1.0
  Ni  Ni153  1  0.16085529  0.03751486  0.16307843  1.0
  Ni  Ni154  1  0.16085529  0.37084819  0.16307843  1.0
  Ni  Ni155  1  0.16085529  0.70418152  0.16307843  1.0
  Ni  Ni156  1  0.49418862  0.03751486  0.16307843  1.0
  Ni  Ni157  1  0.49418862  0.37084819  0.16307843  1.0
  Ni  Ni158  1  0.49418862  0.70418152  0.16307843  1.0
  Ni  Ni159  1  0.82752195  0.03751486  0.16307843  1.0
  Ni  Ni160  1  0.82752195  0.37084819  0.16307843  1.0
  Ni  Ni161  1  0.82752195  0.70418152  0.16307843  1.0
  Ni  Ni162  1  0.05943252  0.13038790  0.16735329  1.0
  Ni  Ni163  1  0.05943252  0.46372124  0.16735329  1.0
  Ni  Ni164  1  0.05943252  0.79705457  0.16735329  1.0
  Ni  Ni165  1  0.39276586  0.13038790  0.16735329  1.0
  Ni  Ni166  1  0.39276586  0.46372124  0.16735329  1.0
  Ni  Ni167  1  0.39276586  0.79705457  0.16735329  1.0
  Ni  Ni168  1  0.72609919  0.13038790  0.16735329  1.0
  Ni  Ni169  1  0.72609919  0.46372124  0.16735329  1.0
  Ni  Ni170  1  0.72609919  0.79705457  0.16735329  1.0
  Ni  Ni171  1  0.10705157  0.27324505  0.23878186  1.0
  Ni  Ni172  1  0.10705157  0.60657838  0.23878186  1.0
  Ni  Ni173  1  0.10705157  0.93991171  0.23878186  1.0
  Ni  Ni174  1  0.44038490  0.27324505  0.23878186  1.0
  Ni  Ni175  1  0.44038490  0.60657838  0.23878186  1.0
  Ni  Ni176  1  0.44038490  0.93991171  0.23878186  1.0
  Ni  Ni177  1  0.77371824  0.27324505  0.23878186  1.0
  Ni  Ni178  1  0.77371824  0.60657838  0.23878186  1.0
  Ni  Ni179  1  0.77371824  0.93991171  0.23878186  1.0
  Ni  Ni180  1  0.05920205  0.01912314  0.16700757  1.0
  Ni  Ni181  1  0.05920205  0.35245648  0.16700757  1.0
  Ni  Ni182  1  0.05920205  0.68578981  0.16700757  1.0
  Ni  Ni183  1  0.39253538  0.01912314  0.16700757  1.0
  Ni  Ni184  1  0.39253538  0.35245648  0.16700757  1.0
  Ni  Ni185  1  0.39253538  0.68578981  0.16700757  1.0
  Ni  Ni186  1  0.72586871  0.01912314  0.16700757  1.0
  Ni  Ni187  1  0.72586871  0.35245648  0.16700757  1.0
  Ni  Ni188  1  0.72586871  0.68578981  0.16700757  1.0
  Ni  Ni189  1  0.10682110  0.16198029  0.23843614  1.0
  Ni  Ni190  1  0.10682110  0.49531362  0.23843614  1.0
  Ni  Ni191  1  0.10682110  0.82864695  0.23843614  1.0
  Ni  Ni192  1  0.44015443  0.16198029  0.23843614  1.0
  Ni  Ni193  1  0.44015443  0.49531362  0.23843614  1.0
  Ni  Ni194  1  0.44015443  0.82864695  0.23843614  1.0
  Ni  Ni195  1  0.77348776  0.16198029  0.23843614  1.0
  Ni  Ni196  1  0.77348776  0.49531362  0.23843614  1.0
  Ni  Ni197  1  0.77348776  0.82864695  0.23843614  1.0
  Ni  Ni198  1  0.20824386  0.06910724  0.23416129  1.0
  Ni  Ni199  1  0.20824386  0.40244057  0.23416129  1.0
  Ni  Ni200  1  0.20824386  0.73577390  0.23416129  1.0
  Ni  Ni201  1  0.54157719  0.06910724  0.23416129  1.0
  Ni  Ni202  1  0.54157719  0.40244057  0.23416129  1.0
  Ni  Ni203  1  0.54157719  0.73577390  0.23416129  1.0
  Ni  Ni204  1  0.87491052  0.06910724  0.23416129  1.0
  Ni  Ni205  1  0.87491052  0.40244057  0.23416129  1.0
  Ni  Ni206  1  0.87491052  0.73577390  0.23416129  1.0
  Ni  Ni207  1  0.16062481  0.25958343  0.16273271  1.0
  Ni  Ni208  1  0.16062481  0.59291676  0.16273271  1.0
  Ni  Ni209  1  0.16062481  0.92625010  0.16273271  1.0
  Ni  Ni210  1  0.49395814  0.25958343  0.16273271  1.0
  Ni  Ni211  1  0.49395814  0.59291676  0.16273271  1.0
  Ni  Ni212  1  0.49395814  0.92625010  0.16273271  1.0
  Ni  Ni213  1  0.82729148  0.25958343  0.16273271  1.0
  Ni  Ni214  1  0.82729148  0.59291676  0.16273271  1.0
  Ni  Ni215  1  0.82729148  0.92625010  0.16273271  1.0
  Ni  Ni216  1  0.30050486  0.09974757  0.20075729  1.0
  Ni  Ni217  1  0.30050486  0.43308090  0.20075729  1.0
  Ni  Ni218  1  0.30050486  0.76641424  0.20075729  1.0
  Ni  Ni219  1  0.63383819  0.09974757  0.20075729  1.0
  Ni  Ni220  1  0.63383819  0.43308090  0.20075729  1.0
  Ni  Ni221  1  0.63383819  0.76641424  0.20075729  1.0
  Ni  Ni222  1  0.96717152  0.09974757  0.20075729  1.0
  Ni  Ni223  1  0.96717152  0.43308090  0.20075729  1.0
  Ni  Ni224  1  0.96717152  0.76641424  0.20075729  1.0
  Ni  Ni225  1  0.01479057  0.24260471  0.27218586  1.0
  Ni  Ni226  1  0.01479057  0.57593805  0.27218586  1.0
  Ni  Ni227  1  0.01479057  0.90927138  0.27218586  1.0
  Ni  Ni228  1  0.34812390  0.24260471  0.27218586  1.0
  Ni  Ni229  1  0.34812390  0.57593805  0.27218586  1.0
  Ni  Ni230  1  0.34812390  0.90927138  0.27218586  1.0
  Ni  Ni231  1  0.68145724  0.24260471  0.27218586  1.0
  Ni  Ni232  1  0.68145724  0.57593805  0.27218586  1.0
  Ni  Ni233  1  0.68145724  0.90927138  0.27218586  1.0
  Ni  Ni234  1  0.32431438  0.00450948  0.23647157  1.0
  Ni  Ni235  1  0.32431438  0.33784281  0.23647157  1.0
  Ni  Ni236  1  0.32431438  0.67117614  0.23647157  1.0
  Ni  Ni237  1  0.65764771  0.00450948  0.23647157  1.0
  Ni  Ni238  1  0.65764771  0.33784281  0.23647157  1.0
  Ni  Ni239  1  0.65764771  0.67117614  0.23647157  1.0
  Ni  Ni240  1  0.99098105  0.00450948  0.23647157  1.0
  Ni  Ni241  1  0.99098105  0.33784281  0.23647157  1.0
  Ni  Ni242  1  0.99098105  0.67117614  0.23647157  1.0
  Ni  Ni243  1  0.27669533  0.19498567  0.16504300  1.0
  Ni  Ni244  1  0.27669533  0.52831900  0.16504300  1.0
  Ni  Ni245  1  0.27669533  0.86165233  0.16504300  1.0
  Ni  Ni246  1  0.61002867  0.19498567  0.16504300  1.0
  Ni  Ni247  1  0.61002867  0.52831900  0.16504300  1.0
  Ni  Ni248  1  0.61002867  0.86165233  0.16504300  1.0
  Ni  Ni249  1  0.94336200  0.19498567  0.16504300  1.0
  Ni  Ni250  1  0.94336200  0.52831900  0.16504300  1.0
  Ni  Ni251  1  0.94336200  0.86165233  0.16504300  1.0
  Ni  Ni252  1  0.03860010  0.31403329  0.30790014  1.0
  Ni  Ni253  1  0.03860010  0.64736662  0.30790014  1.0
  Ni  Ni254  1  0.03860010  0.98069995  0.30790014  1.0
  Ni  Ni255  1  0.37193343  0.31403329  0.30790014  1.0
  Ni  Ni256  1  0.37193343  0.64736662  0.30790014  1.0
  Ni  Ni257  1  0.37193343  0.98069995  0.30790014  1.0
  Ni  Ni258  1  0.70526676  0.31403329  0.30790014  1.0
  Ni  Ni259  1  0.70526676  0.64736662  0.30790014  1.0
  Ni  Ni260  1  0.70526676  0.98069995  0.30790014  1.0
  Ni  Ni261  1  0.08621914  0.12355710  0.37932871  1.0
  Ni  Ni262  1  0.08621914  0.45689043  0.37932871  1.0
  Ni  Ni263  1  0.08621914  0.79022376  0.37932871  1.0
  Ni  Ni264  1  0.41955248  0.12355710  0.37932871  1.0
  Ni  Ni265  1  0.41955248  0.45689043  0.37932871  1.0
  Ni  Ni266  1  0.41955248  0.79022376  0.37932871  1.0
  Ni  Ni267  1  0.75288581  0.12355710  0.37932871  1.0
  Ni  Ni268  1  0.75288581  0.45689043  0.37932871  1.0
  Ni  Ni269  1  0.75288581  0.79022376  0.37932871  1.0
  Ni  Ni270  1  0.30371243  0.13275295  0.37736414  1.0
  Ni  Ni271  1  0.30371243  0.46608629  0.37736414  1.0
  Ni  Ni272  1  0.30371243  0.79941962  0.37736414  1.0
  Ni  Ni273  1  0.63704576  0.13275295  0.37736414  1.0
  Ni  Ni274  1  0.63704576  0.46608629  0.37736414  1.0
  Ni  Ni275  1  0.63704576  0.79941962  0.37736414  1.0
  Ni  Ni276  1  0.97037910  0.13275295  0.37736414  1.0
  Ni  Ni277  1  0.97037910  0.46608629  0.37736414  1.0
  Ni  Ni278  1  0.97037910  0.79941962  0.37736414  1.0
  Ni  Ni279  1  0.25609338  0.32322914  0.30593557  1.0
  Ni  Ni280  1  0.25609338  0.65656248  0.30593557  1.0
  Ni  Ni281  1  0.25609338  0.98989581  0.30593557  1.0
  Ni  Ni282  1  0.58942671  0.32322914  0.30593557  1.0
  Ni  Ni283  1  0.58942671  0.65656248  0.30593557  1.0
  Ni  Ni284  1  0.58942671  0.98989581  0.30593557  1.0
  Ni  Ni285  1  0.92276005  0.32322914  0.30593557  1.0
  Ni  Ni286  1  0.92276005  0.65656248  0.30593557  1.0
  Ni  Ni287  1  0.92276005  0.98989581  0.30593557  1.0
  Ni  Ni288  1  0.15467062  0.08276886  0.31021043  1.0
  Ni  Ni289  1  0.15467062  0.41610219  0.31021043  1.0
  Ni  Ni290  1  0.15467062  0.74943552  0.31021043  1.0
  Ni  Ni291  1  0.48800395  0.08276886  0.31021043  1.0
  Ni  Ni292  1  0.48800395  0.41610219  0.31021043  1.0
  Ni  Ni293  1  0.48800395  0.74943552  0.31021043  1.0
  Ni  Ni294  1  0.82133729  0.08276886  0.31021043  1.0
  Ni  Ni295  1  0.82133729  0.41610219  0.31021043  1.0
  Ni  Ni296  1  0.82133729  0.74943552  0.31021043  1.0
  Ni  Ni297  1  0.20228967  0.22562600  0.38163900  1.0
  Ni  Ni298  1  0.20228967  0.55895933  0.38163900  1.0
  Ni  Ni299  1  0.20228967  0.89229267  0.38163900  1.0
  Ni  Ni300  1  0.53562300  0.22562600  0.38163900  1.0
  Ni  Ni301  1  0.53562300  0.55895933  0.38163900  1.0
  Ni  Ni302  1  0.53562300  0.89229267  0.38163900  1.0
  Ni  Ni303  1  0.86895633  0.22562600  0.38163900  1.0
  Ni  Ni304  1  0.86895633  0.55895933  0.38163900  1.0
  Ni  Ni305  1  0.86895633  0.89229267  0.38163900  1.0
  Ni  Ni306  1  0.15444014  0.30483743  0.30986471  1.0
  Ni  Ni307  1  0.15444014  0.63817076  0.30986471  1.0
  Ni  Ni308  1  0.15444014  0.97150410  0.30986471  1.0
  Ni  Ni309  1  0.48777348  0.30483743  0.30986471  1.0
  Ni  Ni310  1  0.48777348  0.63817076  0.30986471  1.0
  Ni  Ni311  1  0.48777348  0.97150410  0.30986471  1.0
  Ni  Ni312  1  0.82110681  0.30483743  0.30986471  1.0
  Ni  Ni313  1  0.82110681  0.63817076  0.30986471  1.0
  Ni  Ni314  1  0.82110681  0.97150410  0.30986471  1.0
  Ni  Ni315  1  0.20205919  0.11436124  0.38129329  1.0
  Ni  Ni316  1  0.20205919  0.44769457  0.38129329  1.0
  Ni  Ni317  1  0.20205919  0.78102790  0.38129329  1.0
  Ni  Ni318  1  0.53539252  0.11436124  0.38129329  1.0
  Ni  Ni319  1  0.53539252  0.44769457  0.38129329  1.0
  Ni  Ni320  1  0.53539252  0.78102790  0.38129329  1.0
  Ni  Ni321  1  0.86872586  0.11436124  0.38129329  1.0
  Ni  Ni322  1  0.86872586  0.44769457  0.38129329  1.0
  Ni  Ni323  1  0.86872586  0.78102790  0.38129329  1.0
  Ni  Ni324  1  0.30348195  0.02148819  0.37701843  1.0
  Ni  Ni325  1  0.30348195  0.35482152  0.37701843  1.0
  Ni  Ni326  1  0.30348195  0.68815486  0.37701843  1.0
  Ni  Ni327  1  0.63681529  0.02148819  0.37701843  1.0
  Ni  Ni328  1  0.63681529  0.35482152  0.37701843  1.0
  Ni  Ni329  1  0.63681529  0.68815486  0.37701843  1.0
  Ni  Ni330  1  0.97014862  0.02148819  0.37701843  1.0
  Ni  Ni331  1  0.97014862  0.35482152  0.37701843  1.0
  Ni  Ni332  1  0.97014862  0.68815486  0.37701843  1.0
  Ni  Ni333  1  0.25586290  0.21196438  0.30558986  1.0
  Ni  Ni334  1  0.25586290  0.54529771  0.30558986  1.0
  Ni  Ni335  1  0.25586290  0.87863105  0.30558986  1.0
  Ni  Ni336  1  0.58919624  0.21196438  0.30558986  1.0
  Ni  Ni337  1  0.58919624  0.54529771  0.30558986  1.0
  Ni  Ni338  1  0.58919624  0.87863105  0.30558986  1.0
  Ni  Ni339  1  0.92252957  0.21196438  0.30558986  1.0
  Ni  Ni340  1  0.92252957  0.54529771  0.30558986  1.0
  Ni  Ni341  1  0.92252957  0.87863105  0.30558986  1.0
  Ni  Ni342  1  0.06240962  0.05212852  0.34361443  1.0
  Ni  Ni343  1  0.06240962  0.38546186  0.34361443  1.0
  Ni  Ni344  1  0.06240962  0.71879519  0.34361443  1.0
  Ni  Ni345  1  0.39574295  0.05212852  0.34361443  1.0
  Ni  Ni346  1  0.39574295  0.38546186  0.34361443  1.0
  Ni  Ni347  1  0.39574295  0.71879519  0.34361443  1.0
  Ni  Ni348  1  0.72907629  0.05212852  0.34361443  1.0
  Ni  Ni349  1  0.72907629  0.38546186  0.34361443  1.0
  Ni  Ni350  1  0.72907629  0.71879519  0.34361443  1.0
  Ni  Ni351  1  0.11002867  0.19498567  0.41504300  1.0
  Ni  Ni352  1  0.11002867  0.52831900  0.41504300  1.0
  Ni  Ni353  1  0.11002867  0.86165233  0.41504300  1.0
  Ni  Ni354  1  0.44336200  0.19498567  0.41504300  1.0
  Ni  Ni355  1  0.44336200  0.52831900  0.41504300  1.0
  Ni  Ni356  1  0.44336200  0.86165233  0.41504300  1.0
  Ni  Ni357  1  0.77669533  0.19498567  0.41504300  1.0
  Ni  Ni358  1  0.77669533  0.52831900  0.41504300  1.0
  Ni  Ni359  1  0.77669533  0.86165233  0.41504300  1.0
  Ni  Ni360  1  0.08621914  0.29022376  0.37932871  1.0
  Ni  Ni361  1  0.08621914  0.62355710  0.37932871  1.0
  Ni  Ni362  1  0.08621914  0.95689043  0.37932871  1.0
  Ni  Ni363  1  0.41955248  0.29022376  0.37932871  1.0
  Ni  Ni364  1  0.41955248  0.62355710  0.37932871  1.0
  Ni  Ni365  1  0.41955248  0.95689043  0.37932871  1.0
  Ni  Ni366  1  0.75288581  0.29022376  0.37932871  1.0
  Ni  Ni367  1  0.75288581  0.62355710  0.37932871  1.0
  Ni  Ni368  1  0.75288581  0.95689043  0.37932871  1.0
  Ni  Ni369  1  0.03860010  0.14736662  0.30790014  1.0
  Ni  Ni370  1  0.03860010  0.48069995  0.30790014  1.0
  Ni  Ni371  1  0.03860010  0.81403329  0.30790014  1.0
  Ni  Ni372  1  0.37193343  0.14736662  0.30790014  1.0
  Ni  Ni373  1  0.37193343  0.48069995  0.30790014  1.0
  Ni  Ni374  1  0.37193343  0.81403329  0.30790014  1.0
  Ni  Ni375  1  0.70526676  0.14736662  0.30790014  1.0
  Ni  Ni376  1  0.70526676  0.48069995  0.30790014  1.0
  Ni  Ni377  1  0.70526676  0.81403329  0.30790014  1.0
  Zr  Zr378  1  0.08511662  0.18959352  0.01352843  1.0
  Zr  Zr379  1  0.08511662  0.52292686  0.01352843  1.0
  Zr  Zr380  1  0.08511662  0.85626019  0.01352843  1.0
  Zr  Zr381  1  0.41844995  0.18959352  0.01352843  1.0
  Zr  Zr382  1  0.41844995  0.52292686  0.01352843  1.0
  Zr  Zr383  1  0.41844995  0.85626019  0.01352843  1.0
  Zr  Zr384  1  0.75178329  0.18959352  0.01352843  1.0
  Zr  Zr385  1  0.75178329  0.52292686  0.01352843  1.0
  Zr  Zr386  1  0.75178329  0.85626019  0.01352843  1.0
  Zr  Zr387  1  0.13273567  0.33245067  0.08495700  1.0
  Zr  Zr388  1  0.13273567  0.66578400  0.08495700  1.0
  Zr  Zr389  1  0.13273567  0.99911733  0.08495700  1.0
  Zr  Zr390  1  0.46606900  0.33245067  0.08495700  1.0
  Zr  Zr391  1  0.46606900  0.66578400  0.08495700  1.0
  Zr  Zr392  1  0.46606900  0.99911733  0.08495700  1.0
  Zr  Zr393  1  0.79940233  0.33245067  0.08495700  1.0
  Zr  Zr394  1  0.79940233  0.66578400  0.08495700  1.0
  Zr  Zr395  1  0.79940233  0.99911733  0.08495700  1.0
  Zr  Zr396  1  0.32541690  0.10513971  0.10227186  1.0
  Zr  Zr397  1  0.32541690  0.43847305  0.10227186  1.0
  Zr  Zr398  1  0.32541690  0.77180638  0.10227186  1.0
  Zr  Zr399  1  0.65875024  0.10513971  0.10227186  1.0
  Zr  Zr400  1  0.65875024  0.43847305  0.10227186  1.0
  Zr  Zr401  1  0.65875024  0.77180638  0.10227186  1.0
  Zr  Zr402  1  0.99208357  0.10513971  0.10227186  1.0
  Zr  Zr403  1  0.99208357  0.43847305  0.10227186  1.0
  Zr  Zr404  1  0.99208357  0.77180638  0.10227186  1.0
  Zr  Zr405  1  0.27779786  0.29561590  0.03084329  1.0
  Zr  Zr406  1  0.27779786  0.62894924  0.03084329  1.0
  Zr  Zr407  1  0.27779786  0.96228257  0.03084329  1.0
  Zr  Zr408  1  0.61113119  0.29561590  0.03084329  1.0
  Zr  Zr409  1  0.61113119  0.62894924  0.03084329  1.0
  Zr  Zr410  1  0.61113119  0.96228257  0.03084329  1.0
  Zr  Zr411  1  0.94446452  0.29561590  0.03084329  1.0
  Zr  Zr412  1  0.94446452  0.62894924  0.03084329  1.0
  Zr  Zr413  1  0.94446452  0.96228257  0.03084329  1.0
  Zr  Zr414  1  0.18035471  0.14197448  0.15638557  1.0
  Zr  Zr415  1  0.18035471  0.47530781  0.15638557  1.0
  Zr  Zr416  1  0.18035471  0.80864114  0.15638557  1.0
  Zr  Zr417  1  0.51368805  0.14197448  0.15638557  1.0
  Zr  Zr418  1  0.51368805  0.47530781  0.15638557  1.0
  Zr  Zr419  1  0.51368805  0.80864114  0.15638557  1.0
  Zr  Zr420  1  0.84702138  0.14197448  0.15638557  1.0
  Zr  Zr421  1  0.84702138  0.47530781  0.15638557  1.0
  Zr  Zr422  1  0.84702138  0.80864114  0.15638557  1.0
  Zr  Zr423  1  0.22797376  0.28483162  0.22781414  1.0
  Zr  Zr424  1  0.22797376  0.61816495  0.22781414  1.0
  Zr  Zr425  1  0.22797376  0.95149829  0.22781414  1.0
  Zr  Zr426  1  0.56130710  0.28483162  0.22781414  1.0
  Zr  Zr427  1  0.56130710  0.61816495  0.22781414  1.0
  Zr  Zr428  1  0.56130710  0.95149829  0.22781414  1.0
  Zr  Zr429  1  0.89464043  0.28483162  0.22781414  1.0
  Zr  Zr430  1  0.89464043  0.61816495  0.22781414  1.0
  Zr  Zr431  1  0.89464043  0.95149829  0.22781414  1.0
  Zr  Zr432  1  0.08732167  0.05752067  0.24512900  1.0
  Zr  Zr433  1  0.08732167  0.39085400  0.24512900  1.0
  Zr  Zr434  1  0.08732167  0.72418733  0.24512900  1.0
  Zr  Zr435  1  0.42065500  0.05752067  0.24512900  1.0
  Zr  Zr436  1  0.42065500  0.39085400  0.24512900  1.0
  Zr  Zr437  1  0.42065500  0.72418733  0.24512900  1.0
  Zr  Zr438  1  0.75398833  0.05752067  0.24512900  1.0
  Zr  Zr439  1  0.75398833  0.39085400  0.24512900  1.0
  Zr  Zr440  1  0.75398833  0.72418733  0.24512900  1.0
  Zr  Zr441  1  0.03970262  0.24799686  0.17370043  1.0
  Zr  Zr442  1  0.03970262  0.58133019  0.17370043  1.0
  Zr  Zr443  1  0.03970262  0.91466352  0.17370043  1.0
  Zr  Zr444  1  0.37303595  0.24799686  0.17370043  1.0
  Zr  Zr445  1  0.37303595  0.58133019  0.17370043  1.0
  Zr  Zr446  1  0.37303595  0.91466352  0.17370043  1.0
  Zr  Zr447  1  0.70636929  0.24799686  0.17370043  1.0
  Zr  Zr448  1  0.70636929  0.58133019  0.17370043  1.0
  Zr  Zr449  1  0.70636929  0.91466352  0.17370043  1.0
  Zr  Zr450  1  0.27559281  0.09435543  0.29924271  1.0
  Zr  Zr451  1  0.27559281  0.42768876  0.29924271  1.0
  Zr  Zr452  1  0.27559281  0.76102210  0.29924271  1.0
  Zr  Zr453  1  0.60892614  0.09435543  0.29924271  1.0
  Zr  Zr454  1  0.60892614  0.42768876  0.29924271  1.0
  Zr  Zr455  1  0.60892614  0.76102210  0.29924271  1.0
  Zr  Zr456  1  0.94225948  0.09435543  0.29924271  1.0
  Zr  Zr457  1  0.94225948  0.42768876  0.29924271  1.0
  Zr  Zr458  1  0.94225948  0.76102210  0.29924271  1.0
  Zr  Zr459  1  0.32321186  0.23721257  0.37067129  1.0
  Zr  Zr460  1  0.32321186  0.57054590  0.37067129  1.0
  Zr  Zr461  1  0.32321186  0.90387924  0.37067129  1.0
  Zr  Zr462  1  0.65654519  0.23721257  0.37067129  1.0
  Zr  Zr463  1  0.65654519  0.57054590  0.37067129  1.0
  Zr  Zr464  1  0.65654519  0.90387924  0.37067129  1.0
  Zr  Zr465  1  0.98987852  0.23721257  0.37067129  1.0
  Zr  Zr466  1  0.98987852  0.57054590  0.37067129  1.0
  Zr  Zr467  1  0.98987852  0.90387924  0.37067129  1.0
  Zr  Zr468  1  0.18255976  0.00990162  0.38798614  1.0
  Zr  Zr469  1  0.18255976  0.34323495  0.38798614  1.0
  Zr  Zr470  1  0.18255976  0.67656829  0.38798614  1.0
  Zr  Zr471  1  0.51589310  0.00990162  0.38798614  1.0
  Zr  Zr472  1  0.51589310  0.34323495  0.38798614  1.0
  Zr  Zr473  1  0.51589310  0.67656829  0.38798614  1.0
  Zr  Zr474  1  0.84922643  0.00990162  0.38798614  1.0
  Zr  Zr475  1  0.84922643  0.34323495  0.38798614  1.0
  Zr  Zr476  1  0.84922643  0.67656829  0.38798614  1.0
  Zr  Zr477  1  0.13494071  0.20037781  0.31655757  1.0
  Zr  Zr478  1  0.13494071  0.53371114  0.31655757  1.0
  Zr  Zr479  1  0.13494071  0.86704448  0.31655757  1.0
  Zr  Zr480  1  0.46827405  0.20037781  0.31655757  1.0
  Zr  Zr481  1  0.46827405  0.53371114  0.31655757  1.0
  Zr  Zr482  1  0.46827405  0.86704448  0.31655757  1.0
  Zr  Zr483  1  0.80160738  0.20037781  0.31655757  1.0
  Zr  Zr484  1  0.80160738  0.53371114  0.31655757  1.0
  Zr  Zr485  1  0.80160738  0.86704448  0.31655757  1.0
