# generated using pymatgen
data_Zr3Ni
_symmetry_space_group_name_H-M   'P 1'
_cell_length_a   48.13482888
_cell_length_b   23.38285437
_cell_length_c   44.06665500
_cell_angle_alpha   51.08325950
_cell_angle_beta   90.00000000
_cell_angle_gamma   53.97361100
_symmetry_Int_Tables_number   1
_chemical_formula_structural   Zr3Ni
_chemical_formula_sum   'Zr432 Ni144'
_cell_volume   25263.38480672
_cell_formula_units_Z   144
loop_
 _symmetry_equiv_pos_site_id
 _symmetry_equiv_pos_as_xyz
  1  'x, y, z'
loop_
 _atom_site_type_symbol
 _atom_site_label
 _atom_site_symmetry_multiplicity
 _atom_site_fract_x
 _atom_site_fract_y
 _atom_site_fract_z
 _atom_site_occupancy
  Zr  Zr0  1  0.30427550  0.14528917  0.09045917  1.0
  Zr  Zr1  1  0.30427550  0.47862250  0.09045917  1.0
  Zr  Zr2  1  0.30427550  0.81195583  0.09045917  1.0
  Zr  Zr3  1  0.63760883  0.14528917  0.09045917  1.0
  Zr  Zr4  1  0.63760883  0.47862250  0.09045917  1.0
  Zr  Zr5  1  0.63760883  0.81195583  0.09045917  1.0
  Zr  Zr6  1  0.97094217  0.14528917  0.09045917  1.0
  Zr  Zr7  1  0.97094217  0.47862250  0.09045917  1.0
  Zr  Zr8  1  0.97094217  0.81195583  0.09045917  1.0
  Zr  Zr9  1  0.13760883  0.31195583  0.03490361  1.0
  Zr  Zr10  1  0.13760883  0.64528917  0.03490361  1.0
  Zr  Zr11  1  0.13760883  0.97862250  0.03490361  1.0
  Zr  Zr12  1  0.47094217  0.31195583  0.03490361  1.0
  Zr  Zr13  1  0.47094217  0.64528917  0.03490361  1.0
  Zr  Zr14  1  0.47094217  0.97862250  0.03490361  1.0
  Zr  Zr15  1  0.80427550  0.31195583  0.03490361  1.0
  Zr  Zr16  1  0.80427550  0.64528917  0.03490361  1.0
  Zr  Zr17  1  0.80427550  0.97862250  0.03490361  1.0
  Zr  Zr18  1  0.27521767  0.11623133  0.04458956  1.0
  Zr  Zr19  1  0.27521767  0.44956467  0.04458956  1.0
  Zr  Zr20  1  0.27521767  0.78289800  0.04458956  1.0
  Zr  Zr21  1  0.60855100  0.11623133  0.04458956  1.0
  Zr  Zr22  1  0.60855100  0.44956467  0.04458956  1.0
  Zr  Zr23  1  0.60855100  0.78289800  0.04458956  1.0
  Zr  Zr24  1  0.94188433  0.11623133  0.04458956  1.0
  Zr  Zr25  1  0.94188433  0.44956467  0.04458956  1.0
  Zr  Zr26  1  0.94188433  0.78289800  0.04458956  1.0
  Zr  Zr27  1  0.10855100  0.28289800  0.10014511  1.0
  Zr  Zr28  1  0.10855100  0.61623133  0.10014511  1.0
  Zr  Zr29  1  0.10855100  0.94956467  0.10014511  1.0
  Zr  Zr30  1  0.44188433  0.28289800  0.10014511  1.0
  Zr  Zr31  1  0.44188433  0.61623133  0.10014511  1.0
  Zr  Zr32  1  0.44188433  0.94956467  0.10014511  1.0
  Zr  Zr33  1  0.77521767  0.28289800  0.10014511  1.0
  Zr  Zr34  1  0.77521767  0.61623133  0.10014511  1.0
  Zr  Zr35  1  0.77521767  0.94956467  0.10014511  1.0
  Zr  Zr36  1  0.19572450  0.19572450  0.01809183  1.0
  Zr  Zr37  1  0.19572450  0.52905783  0.01809183  1.0
  Zr  Zr38  1  0.19572450  0.86239117  0.01809183  1.0
  Zr  Zr39  1  0.52905783  0.19572450  0.01809183  1.0
  Zr  Zr40  1  0.52905783  0.52905783  0.01809183  1.0
  Zr  Zr41  1  0.52905783  0.86239117  0.01809183  1.0
  Zr  Zr42  1  0.86239117  0.19572450  0.01809183  1.0
  Zr  Zr43  1  0.86239117  0.52905783  0.01809183  1.0
  Zr  Zr44  1  0.86239117  0.86239117  0.01809183  1.0
  Zr  Zr45  1  0.02905783  0.02905783  0.07364739  1.0
  Zr  Zr46  1  0.02905783  0.36239117  0.07364739  1.0
  Zr  Zr47  1  0.02905783  0.69572450  0.07364739  1.0
  Zr  Zr48  1  0.36239117  0.02905783  0.07364739  1.0
  Zr  Zr49  1  0.36239117  0.36239117  0.07364739  1.0
  Zr  Zr50  1  0.36239117  0.69572450  0.07364739  1.0
  Zr  Zr51  1  0.69572450  0.02905783  0.07364739  1.0
  Zr  Zr52  1  0.69572450  0.36239117  0.07364739  1.0
  Zr  Zr53  1  0.69572450  0.69572450  0.07364739  1.0
  Zr  Zr54  1  0.19572450  0.02137750  0.07620750  1.0
  Zr  Zr55  1  0.19572450  0.35471083  0.07620750  1.0
  Zr  Zr56  1  0.19572450  0.68804417  0.07620750  1.0
  Zr  Zr57  1  0.52905783  0.02137750  0.07620750  1.0
  Zr  Zr58  1  0.52905783  0.35471083  0.07620750  1.0
  Zr  Zr59  1  0.52905783  0.68804417  0.07620750  1.0
  Zr  Zr60  1  0.86239117  0.02137750  0.07620750  1.0
  Zr  Zr61  1  0.86239117  0.35471083  0.07620750  1.0
  Zr  Zr62  1  0.86239117  0.68804417  0.07620750  1.0
  Zr  Zr63  1  0.02905783  0.18804417  0.02065194  1.0
  Zr  Zr64  1  0.02905783  0.52137750  0.02065194  1.0
  Zr  Zr65  1  0.02905783  0.85471083  0.02065194  1.0
  Zr  Zr66  1  0.36239117  0.18804417  0.02065194  1.0
  Zr  Zr67  1  0.36239117  0.52137750  0.02065194  1.0
  Zr  Zr68  1  0.36239117  0.85471083  0.02065194  1.0
  Zr  Zr69  1  0.69572450  0.18804417  0.02065194  1.0
  Zr  Zr70  1  0.69572450  0.52137750  0.02065194  1.0
  Zr  Zr71  1  0.69572450  0.85471083  0.02065194  1.0
  Zr  Zr72  1  0.22478233  0.05043533  0.01096600  1.0
  Zr  Zr73  1  0.22478233  0.38376867  0.01096600  1.0
  Zr  Zr74  1  0.22478233  0.71710200  0.01096600  1.0
  Zr  Zr75  1  0.55811567  0.05043533  0.01096600  1.0
  Zr  Zr76  1  0.55811567  0.38376867  0.01096600  1.0
  Zr  Zr77  1  0.55811567  0.71710200  0.01096600  1.0
  Zr  Zr78  1  0.89144900  0.05043533  0.01096600  1.0
  Zr  Zr79  1  0.89144900  0.38376867  0.01096600  1.0
  Zr  Zr80  1  0.89144900  0.71710200  0.01096600  1.0
  Zr  Zr81  1  0.05811567  0.21710200  0.06652156  1.0
  Zr  Zr82  1  0.05811567  0.55043533  0.06652156  1.0
  Zr  Zr83  1  0.05811567  0.88376867  0.06652156  1.0
  Zr  Zr84  1  0.39144900  0.21710200  0.06652156  1.0
  Zr  Zr85  1  0.39144900  0.55043533  0.06652156  1.0
  Zr  Zr86  1  0.39144900  0.88376867  0.06652156  1.0
  Zr  Zr87  1  0.72478233  0.21710200  0.06652156  1.0
  Zr  Zr88  1  0.72478233  0.55043533  0.06652156  1.0
  Zr  Zr89  1  0.72478233  0.88376867  0.06652156  1.0
  Zr  Zr90  1  0.30427550  0.30427550  0.03746372  1.0
  Zr  Zr91  1  0.30427550  0.63760883  0.03746372  1.0
  Zr  Zr92  1  0.30427550  0.97094217  0.03746372  1.0
  Zr  Zr93  1  0.63760883  0.30427550  0.03746372  1.0
  Zr  Zr94  1  0.63760883  0.63760883  0.03746372  1.0
  Zr  Zr95  1  0.63760883  0.97094217  0.03746372  1.0
  Zr  Zr96  1  0.97094217  0.30427550  0.03746372  1.0
  Zr  Zr97  1  0.97094217  0.63760883  0.03746372  1.0
  Zr  Zr98  1  0.97094217  0.97094217  0.03746372  1.0
  Zr  Zr99  1  0.13760883  0.13760883  0.09301928  1.0
  Zr  Zr100  1  0.13760883  0.47094217  0.09301928  1.0
  Zr  Zr101  1  0.13760883  0.80427550  0.09301928  1.0
  Zr  Zr102  1  0.47094217  0.13760883  0.09301928  1.0
  Zr  Zr103  1  0.47094217  0.47094217  0.09301928  1.0
  Zr  Zr104  1  0.47094217  0.80427550  0.09301928  1.0
  Zr  Zr105  1  0.80427550  0.13760883  0.09301928  1.0
  Zr  Zr106  1  0.80427550  0.47094217  0.09301928  1.0
  Zr  Zr107  1  0.80427550  0.80427550  0.09301928  1.0
  Ni  Ni108  1  0.27777778  0.27777778  0.10185185  1.0
  Ni  Ni109  1  0.27777778  0.61111111  0.10185185  1.0
  Ni  Ni110  1  0.27777778  0.94444444  0.10185185  1.0
  Ni  Ni111  1  0.61111111  0.27777778  0.10185185  1.0
  Ni  Ni112  1  0.61111111  0.61111111  0.10185185  1.0
  Ni  Ni113  1  0.61111111  0.94444444  0.10185185  1.0
  Ni  Ni114  1  0.94444444  0.27777778  0.10185185  1.0
  Ni  Ni115  1  0.94444444  0.61111111  0.10185185  1.0
  Ni  Ni116  1  0.94444444  0.94444444  0.10185185  1.0
  Ni  Ni117  1  0.11111111  0.11111111  0.04629630  1.0
  Ni  Ni118  1  0.11111111  0.44444444  0.04629630  1.0
  Ni  Ni119  1  0.11111111  0.77777778  0.04629630  1.0
  Ni  Ni120  1  0.44444444  0.11111111  0.04629630  1.0
  Ni  Ni121  1  0.44444444  0.44444444  0.04629630  1.0
  Ni  Ni122  1  0.44444444  0.77777778  0.04629630  1.0
  Ni  Ni123  1  0.77777778  0.11111111  0.04629630  1.0
  Ni  Ni124  1  0.77777778  0.44444444  0.04629630  1.0
  Ni  Ni125  1  0.77777778  0.77777778  0.04629630  1.0
  Ni  Ni126  1  0.22222222  0.22222222  0.06481481  1.0
  Ni  Ni127  1  0.22222222  0.55555556  0.06481481  1.0
  Ni  Ni128  1  0.22222222  0.88888889  0.06481481  1.0
  Ni  Ni129  1  0.55555556  0.22222222  0.06481481  1.0
  Ni  Ni130  1  0.55555556  0.55555556  0.06481481  1.0
  Ni  Ni131  1  0.55555556  0.88888889  0.06481481  1.0
  Ni  Ni132  1  0.88888889  0.22222222  0.06481481  1.0
  Ni  Ni133  1  0.88888889  0.55555556  0.06481481  1.0
  Ni  Ni134  1  0.88888889  0.88888889  0.06481481  1.0
  Ni  Ni135  1  0.05555556  0.05555556  0.00925926  1.0
  Ni  Ni136  1  0.05555556  0.38888889  0.00925926  1.0
  Ni  Ni137  1  0.05555556  0.72222222  0.00925926  1.0
  Ni  Ni138  1  0.38888889  0.05555556  0.00925926  1.0
  Ni  Ni139  1  0.38888889  0.38888889  0.00925926  1.0
  Ni  Ni140  1  0.38888889  0.72222222  0.00925926  1.0
  Ni  Ni141  1  0.72222222  0.05555556  0.00925926  1.0
  Ni  Ni142  1  0.72222222  0.38888889  0.00925926  1.0
  Ni  Ni143  1  0.72222222  0.72222222  0.00925926  1.0
  Zr  Zr144  1  0.30427550  0.14528917  0.20157028  1.0
  Zr  Zr145  1  0.30427550  0.47862250  0.20157028  1.0
  Zr  Zr146  1  0.30427550  0.81195583  0.20157028  1.0
  Zr  Zr147  1  0.63760883  0.14528917  0.20157028  1.0
  Zr  Zr148  1  0.63760883  0.47862250  0.20157028  1.0
  Zr  Zr149  1  0.63760883  0.81195583  0.20157028  1.0
  Zr  Zr150  1  0.97094217  0.14528917  0.20157028  1.0
  Zr  Zr151  1  0.97094217  0.47862250  0.20157028  1.0
  Zr  Zr152  1  0.97094217  0.81195583  0.20157028  1.0
  Zr  Zr153  1  0.13760883  0.31195583  0.14601472  1.0
  Zr  Zr154  1  0.13760883  0.64528917  0.14601472  1.0
  Zr  Zr155  1  0.13760883  0.97862250  0.14601472  1.0
  Zr  Zr156  1  0.47094217  0.31195583  0.14601472  1.0
  Zr  Zr157  1  0.47094217  0.64528917  0.14601472  1.0
  Zr  Zr158  1  0.47094217  0.97862250  0.14601472  1.0
  Zr  Zr159  1  0.80427550  0.31195583  0.14601472  1.0
  Zr  Zr160  1  0.80427550  0.64528917  0.14601472  1.0
  Zr  Zr161  1  0.80427550  0.97862250  0.14601472  1.0
  Zr  Zr162  1  0.27521767  0.11623133  0.15570067  1.0
  Zr  Zr163  1  0.27521767  0.44956467  0.15570067  1.0
  Zr  Zr164  1  0.27521767  0.78289800  0.15570067  1.0
  Zr  Zr165  1  0.60855100  0.11623133  0.15570067  1.0
  Zr  Zr166  1  0.60855100  0.44956467  0.15570067  1.0
  Zr  Zr167  1  0.60855100  0.78289800  0.15570067  1.0
  Zr  Zr168  1  0.94188433  0.11623133  0.15570067  1.0
  Zr  Zr169  1  0.94188433  0.44956467  0.15570067  1.0
  Zr  Zr170  1  0.94188433  0.78289800  0.15570067  1.0
  Zr  Zr171  1  0.10855100  0.28289800  0.21125622  1.0
  Zr  Zr172  1  0.10855100  0.61623133  0.21125622  1.0
  Zr  Zr173  1  0.10855100  0.94956467  0.21125622  1.0
  Zr  Zr174  1  0.44188433  0.28289800  0.21125622  1.0
  Zr  Zr175  1  0.44188433  0.61623133  0.21125622  1.0
  Zr  Zr176  1  0.44188433  0.94956467  0.21125622  1.0
  Zr  Zr177  1  0.77521767  0.28289800  0.21125622  1.0
  Zr  Zr178  1  0.77521767  0.61623133  0.21125622  1.0
  Zr  Zr179  1  0.77521767  0.94956467  0.21125622  1.0
  Zr  Zr180  1  0.19572450  0.19572450  0.12920294  1.0
  Zr  Zr181  1  0.19572450  0.52905783  0.12920294  1.0
  Zr  Zr182  1  0.19572450  0.86239117  0.12920294  1.0
  Zr  Zr183  1  0.52905783  0.19572450  0.12920294  1.0
  Zr  Zr184  1  0.52905783  0.52905783  0.12920294  1.0
  Zr  Zr185  1  0.52905783  0.86239117  0.12920294  1.0
  Zr  Zr186  1  0.86239117  0.19572450  0.12920294  1.0
  Zr  Zr187  1  0.86239117  0.52905783  0.12920294  1.0
  Zr  Zr188  1  0.86239117  0.86239117  0.12920294  1.0
  Zr  Zr189  1  0.02905783  0.02905783  0.18475850  1.0
  Zr  Zr190  1  0.02905783  0.36239117  0.18475850  1.0
  Zr  Zr191  1  0.02905783  0.69572450  0.18475850  1.0
  Zr  Zr192  1  0.36239117  0.02905783  0.18475850  1.0
  Zr  Zr193  1  0.36239117  0.36239117  0.18475850  1.0
  Zr  Zr194  1  0.36239117  0.69572450  0.18475850  1.0
  Zr  Zr195  1  0.69572450  0.02905783  0.18475850  1.0
  Zr  Zr196  1  0.69572450  0.36239117  0.18475850  1.0
  Zr  Zr197  1  0.69572450  0.69572450  0.18475850  1.0
  Zr  Zr198  1  0.19572450  0.02137750  0.18731861  1.0
  Zr  Zr199  1  0.19572450  0.35471083  0.18731861  1.0
  Zr  Zr200  1  0.19572450  0.68804417  0.18731861  1.0
  Zr  Zr201  1  0.52905783  0.02137750  0.18731861  1.0
  Zr  Zr202  1  0.52905783  0.35471083  0.18731861  1.0
  Zr  Zr203  1  0.52905783  0.68804417  0.18731861  1.0
  Zr  Zr204  1  0.86239117  0.02137750  0.18731861  1.0
  Zr  Zr205  1  0.86239117  0.35471083  0.18731861  1.0
  Zr  Zr206  1  0.86239117  0.68804417  0.18731861  1.0
  Zr  Zr207  1  0.02905783  0.18804417  0.13176306  1.0
  Zr  Zr208  1  0.02905783  0.52137750  0.13176306  1.0
  Zr  Zr209  1  0.02905783  0.85471083  0.13176306  1.0
  Zr  Zr210  1  0.36239117  0.18804417  0.13176306  1.0
  Zr  Zr211  1  0.36239117  0.52137750  0.13176306  1.0
  Zr  Zr212  1  0.36239117  0.85471083  0.13176306  1.0
  Zr  Zr213  1  0.69572450  0.18804417  0.13176306  1.0
  Zr  Zr214  1  0.69572450  0.52137750  0.13176306  1.0
  Zr  Zr215  1  0.69572450  0.85471083  0.13176306  1.0
  Zr  Zr216  1  0.22478233  0.05043533  0.12207711  1.0
  Zr  Zr217  1  0.22478233  0.38376867  0.12207711  1.0
  Zr  Zr218  1  0.22478233  0.71710200  0.12207711  1.0
  Zr  Zr219  1  0.55811567  0.05043533  0.12207711  1.0
  Zr  Zr220  1  0.55811567  0.38376867  0.12207711  1.0
  Zr  Zr221  1  0.55811567  0.71710200  0.12207711  1.0
  Zr  Zr222  1  0.89144900  0.05043533  0.12207711  1.0
  Zr  Zr223  1  0.89144900  0.38376867  0.12207711  1.0
  Zr  Zr224  1  0.89144900  0.71710200  0.12207711  1.0
  Zr  Zr225  1  0.05811567  0.21710200  0.17763267  1.0
  Zr  Zr226  1  0.05811567  0.55043533  0.17763267  1.0
  Zr  Zr227  1  0.05811567  0.88376867  0.17763267  1.0
  Zr  Zr228  1  0.39144900  0.21710200  0.17763267  1.0
  Zr  Zr229  1  0.39144900  0.55043533  0.17763267  1.0
  Zr  Zr230  1  0.39144900  0.88376867  0.17763267  1.0
  Zr  Zr231  1  0.72478233  0.21710200  0.17763267  1.0
  Zr  Zr232  1  0.72478233  0.55043533  0.17763267  1.0
  Zr  Zr233  1  0.72478233  0.88376867  0.17763267  1.0
  Zr  Zr234  1  0.30427550  0.30427550  0.14857483  1.0
  Zr  Zr235  1  0.30427550  0.63760883  0.14857483  1.0
  Zr  Zr236  1  0.30427550  0.97094217  0.14857483  1.0
  Zr  Zr237  1  0.63760883  0.30427550  0.14857483  1.0
  Zr  Zr238  1  0.63760883  0.63760883  0.14857483  1.0
  Zr  Zr239  1  0.63760883  0.97094217  0.14857483  1.0
  Zr  Zr240  1  0.97094217  0.30427550  0.14857483  1.0
  Zr  Zr241  1  0.97094217  0.63760883  0.14857483  1.0
  Zr  Zr242  1  0.97094217  0.97094217  0.14857483  1.0
  Zr  Zr243  1  0.13760883  0.13760883  0.20413039  1.0
  Zr  Zr244  1  0.13760883  0.47094217  0.20413039  1.0
  Zr  Zr245  1  0.13760883  0.80427550  0.20413039  1.0
  Zr  Zr246  1  0.47094217  0.13760883  0.20413039  1.0
  Zr  Zr247  1  0.47094217  0.47094217  0.20413039  1.0
  Zr  Zr248  1  0.47094217  0.80427550  0.20413039  1.0
  Zr  Zr249  1  0.80427550  0.13760883  0.20413039  1.0
  Zr  Zr250  1  0.80427550  0.47094217  0.20413039  1.0
  Zr  Zr251  1  0.80427550  0.80427550  0.20413039  1.0
  Ni  Ni252  1  0.27777778  0.27777778  0.21296296  1.0
  Ni  Ni253  1  0.27777778  0.61111111  0.21296296  1.0
  Ni  Ni254  1  0.27777778  0.94444444  0.21296296  1.0
  Ni  Ni255  1  0.61111111  0.27777778  0.21296296  1.0
  Ni  Ni256  1  0.61111111  0.61111111  0.21296296  1.0
  Ni  Ni257  1  0.61111111  0.94444444  0.21296296  1.0
  Ni  Ni258  1  0.94444444  0.27777778  0.21296296  1.0
  Ni  Ni259  1  0.94444444  0.61111111  0.21296296  1.0
  Ni  Ni260  1  0.94444444  0.94444444  0.21296296  1.0
  Ni  Ni261  1  0.11111111  0.11111111  0.15740741  1.0
  Ni  Ni262  1  0.11111111  0.44444444  0.15740741  1.0
  Ni  Ni263  1  0.11111111  0.77777778  0.15740741  1.0
  Ni  Ni264  1  0.44444444  0.11111111  0.15740741  1.0
  Ni  Ni265  1  0.44444444  0.44444444  0.15740741  1.0
  Ni  Ni266  1  0.44444444  0.77777778  0.15740741  1.0
  Ni  Ni267  1  0.77777778  0.11111111  0.15740741  1.0
  Ni  Ni268  1  0.77777778  0.44444444  0.15740741  1.0
  Ni  Ni269  1  0.77777778  0.77777778  0.15740741  1.0
  Ni  Ni270  1  0.22222222  0.22222222  0.17592593  1.0
  Ni  Ni271  1  0.22222222  0.55555556  0.17592593  1.0
  Ni  Ni272  1  0.22222222  0.88888889  0.17592593  1.0
  Ni  Ni273  1  0.55555556  0.22222222  0.17592593  1.0
  Ni  Ni274  1  0.55555556  0.55555556  0.17592593  1.0
  Ni  Ni275  1  0.55555556  0.88888889  0.17592593  1.0
  Ni  Ni276  1  0.88888889  0.22222222  0.17592593  1.0
  Ni  Ni277  1  0.88888889  0.55555556  0.17592593  1.0
  Ni  Ni278  1  0.88888889  0.88888889  0.17592593  1.0
  Ni  Ni279  1  0.05555556  0.05555556  0.12037037  1.0
  Ni  Ni280  1  0.05555556  0.38888889  0.12037037  1.0
  Ni  Ni281  1  0.05555556  0.72222222  0.12037037  1.0
  Ni  Ni282  1  0.38888889  0.05555556  0.12037037  1.0
  Ni  Ni283  1  0.38888889  0.38888889  0.12037037  1.0
  Ni  Ni284  1  0.38888889  0.72222222  0.12037037  1.0
  Ni  Ni285  1  0.72222222  0.05555556  0.12037037  1.0
  Ni  Ni286  1  0.72222222  0.38888889  0.12037037  1.0
  Ni  Ni287  1  0.72222222  0.72222222  0.12037037  1.0
  Zr  Zr288  1  0.30427550  0.14528917  0.31268139  1.0
  Zr  Zr289  1  0.30427550  0.47862250  0.31268139  1.0
  Zr  Zr290  1  0.30427550  0.81195583  0.31268139  1.0
  Zr  Zr291  1  0.63760883  0.14528917  0.31268139  1.0
  Zr  Zr292  1  0.63760883  0.47862250  0.31268139  1.0
  Zr  Zr293  1  0.63760883  0.81195583  0.31268139  1.0
  Zr  Zr294  1  0.97094217  0.14528917  0.31268139  1.0
  Zr  Zr295  1  0.97094217  0.47862250  0.31268139  1.0
  Zr  Zr296  1  0.97094217  0.81195583  0.31268139  1.0
  Zr  Zr297  1  0.13760883  0.31195583  0.25712583  1.0
  Zr  Zr298  1  0.13760883  0.64528917  0.25712583  1.0
  Zr  Zr299  1  0.13760883  0.97862250  0.25712583  1.0
  Zr  Zr300  1  0.47094217  0.31195583  0.25712583  1.0
  Zr  Zr301  1  0.47094217  0.64528917  0.25712583  1.0
  Zr  Zr302  1  0.47094217  0.97862250  0.25712583  1.0
  Zr  Zr303  1  0.80427550  0.31195583  0.25712583  1.0
  Zr  Zr304  1  0.80427550  0.64528917  0.25712583  1.0
  Zr  Zr305  1  0.80427550  0.97862250  0.25712583  1.0
  Zr  Zr306  1  0.27521767  0.11623133  0.26681178  1.0
  Zr  Zr307  1  0.27521767  0.44956467  0.26681178  1.0
  Zr  Zr308  1  0.27521767  0.78289800  0.26681178  1.0
  Zr  Zr309  1  0.60855100  0.11623133  0.26681178  1.0
  Zr  Zr310  1  0.60855100  0.44956467  0.26681178  1.0
  Zr  Zr311  1  0.60855100  0.78289800  0.26681178  1.0
  Zr  Zr312  1  0.94188433  0.11623133  0.26681178  1.0
  Zr  Zr313  1  0.94188433  0.44956467  0.26681178  1.0
  Zr  Zr314  1  0.94188433  0.78289800  0.26681178  1.0
  Zr  Zr315  1  0.10855100  0.28289800  0.32236733  1.0
  Zr  Zr316  1  0.10855100  0.61623133  0.32236733  1.0
  Zr  Zr317  1  0.10855100  0.94956467  0.32236733  1.0
  Zr  Zr318  1  0.44188433  0.28289800  0.32236733  1.0
  Zr  Zr319  1  0.44188433  0.61623133  0.32236733  1.0
  Zr  Zr320  1  0.44188433  0.94956467  0.32236733  1.0
  Zr  Zr321  1  0.77521767  0.28289800  0.32236733  1.0
  Zr  Zr322  1  0.77521767  0.61623133  0.32236733  1.0
  Zr  Zr323  1  0.77521767  0.94956467  0.32236733  1.0
  Zr  Zr324  1  0.19572450  0.19572450  0.24031406  1.0
  Zr  Zr325  1  0.19572450  0.52905783  0.24031406  1.0
  Zr  Zr326  1  0.19572450  0.86239117  0.24031406  1.0
  Zr  Zr327  1  0.52905783  0.19572450  0.24031406  1.0
  Zr  Zr328  1  0.52905783  0.52905783  0.24031406  1.0
  Zr  Zr329  1  0.52905783  0.86239117  0.24031406  1.0
  Zr  Zr330  1  0.86239117  0.19572450  0.24031406  1.0
  Zr  Zr331  1  0.86239117  0.52905783  0.24031406  1.0
  Zr  Zr332  1  0.86239117  0.86239117  0.24031406  1.0
  Zr  Zr333  1  0.02905783  0.02905783  0.29586961  1.0
  Zr  Zr334  1  0.02905783  0.36239117  0.29586961  1.0
  Zr  Zr335  1  0.02905783  0.69572450  0.29586961  1.0
  Zr  Zr336  1  0.36239117  0.02905783  0.29586961  1.0
  Zr  Zr337  1  0.36239117  0.36239117  0.29586961  1.0
  Zr  Zr338  1  0.36239117  0.69572450  0.29586961  1.0
  Zr  Zr339  1  0.69572450  0.02905783  0.29586961  1.0
  Zr  Zr340  1  0.69572450  0.36239117  0.29586961  1.0
  Zr  Zr341  1  0.69572450  0.69572450  0.29586961  1.0
  Zr  Zr342  1  0.19572450  0.02137750  0.29842972  1.0
  Zr  Zr343  1  0.19572450  0.35471083  0.29842972  1.0
  Zr  Zr344  1  0.19572450  0.68804417  0.29842972  1.0
  Zr  Zr345  1  0.52905783  0.02137750  0.29842972  1.0
  Zr  Zr346  1  0.52905783  0.35471083  0.29842972  1.0
  Zr  Zr347  1  0.52905783  0.68804417  0.29842972  1.0
  Zr  Zr348  1  0.86239117  0.02137750  0.29842972  1.0
  Zr  Zr349  1  0.86239117  0.35471083  0.29842972  1.0
  Zr  Zr350  1  0.86239117  0.68804417  0.29842972  1.0
  Zr  Zr351  1  0.02905783  0.18804417  0.24287417  1.0
  Zr  Zr352  1  0.02905783  0.52137750  0.24287417  1.0
  Zr  Zr353  1  0.02905783  0.85471083  0.24287417  1.0
  Zr  Zr354  1  0.36239117  0.18804417  0.24287417  1.0
  Zr  Zr355  1  0.36239117  0.52137750  0.24287417  1.0
  Zr  Zr356  1  0.36239117  0.85471083  0.24287417  1.0
  Zr  Zr357  1  0.69572450  0.18804417  0.24287417  1.0
  Zr  Zr358  1  0.69572450  0.52137750  0.24287417  1.0
  Zr  Zr359  1  0.69572450  0.85471083  0.24287417  1.0
  Zr  Zr360  1  0.22478233  0.05043533  0.23318822  1.0
  Zr  Zr361  1  0.22478233  0.38376867  0.23318822  1.0
  Zr  Zr362  1  0.22478233  0.71710200  0.23318822  1.0
  Zr  Zr363  1  0.55811567  0.05043533  0.23318822  1.0
  Zr  Zr364  1  0.55811567  0.38376867  0.23318822  1.0
  Zr  Zr365  1  0.55811567  0.71710200  0.23318822  1.0
  Zr  Zr366  1  0.89144900  0.05043533  0.23318822  1.0
  Zr  Zr367  1  0.89144900  0.38376867  0.23318822  1.0
  Zr  Zr368  1  0.89144900  0.71710200  0.23318822  1.0
  Zr  Zr369  1  0.05811567  0.21710200  0.28874378  1.0
  Zr  Zr370  1  0.05811567  0.55043533  0.28874378  1.0
  Zr  Zr371  1  0.05811567  0.88376867  0.28874378  1.0
  Zr  Zr372  1  0.39144900  0.21710200  0.28874378  1.0
  Zr  Zr373  1  0.39144900  0.55043533  0.28874378  1.0
  Zr  Zr374  1  0.39144900  0.88376867  0.28874378  1.0
  Zr  Zr375  1  0.72478233  0.21710200  0.28874378  1.0
  Zr  Zr376  1  0.72478233  0.55043533  0.28874378  1.0
  Zr  Zr377  1  0.72478233  0.88376867  0.28874378  1.0
  Zr  Zr378  1  0.30427550  0.30427550  0.25968594  1.0
  Zr  Zr379  1  0.30427550  0.63760883  0.25968594  1.0
  Zr  Zr380  1  0.30427550  0.97094217  0.25968594  1.0
  Zr  Zr381  1  0.63760883  0.30427550  0.25968594  1.0
  Zr  Zr382  1  0.63760883  0.63760883  0.25968594  1.0
  Zr  Zr383  1  0.63760883  0.97094217  0.25968594  1.0
  Zr  Zr384  1  0.97094217  0.30427550  0.25968594  1.0
  Zr  Zr385  1  0.97094217  0.63760883  0.25968594  1.0
  Zr  Zr386  1  0.97094217  0.97094217  0.25968594  1.0
  Zr  Zr387  1  0.13760883  0.13760883  0.31524150  1.0
  Zr  Zr388  1  0.13760883  0.47094217  0.31524150  1.0
  Zr  Zr389  1  0.13760883  0.80427550  0.31524150  1.0
  Zr  Zr390  1  0.47094217  0.13760883  0.31524150  1.0
  Zr  Zr391  1  0.47094217  0.47094217  0.31524150  1.0
  Zr  Zr392  1  0.47094217  0.80427550  0.31524150  1.0
  Zr  Zr393  1  0.80427550  0.13760883  0.31524150  1.0
  Zr  Zr394  1  0.80427550  0.47094217  0.31524150  1.0
  Zr  Zr395  1  0.80427550  0.80427550  0.31524150  1.0
  Ni  Ni396  1  0.27777778  0.27777778  0.32407407  1.0
  Ni  Ni397  1  0.27777778  0.61111111  0.32407407  1.0
  Ni  Ni398  1  0.27777778  0.94444444  0.32407407  1.0
  Ni  Ni399  1  0.61111111  0.27777778  0.32407407  1.0
  Ni  Ni400  1  0.61111111  0.61111111  0.32407407  1.0
  Ni  Ni401  1  0.61111111  0.94444444  0.32407407  1.0
  Ni  Ni402  1  0.94444444  0.27777778  0.32407407  1.0
  Ni  Ni403  1  0.94444444  0.61111111  0.32407407  1.0
  Ni  Ni404  1  0.94444444  0.94444444  0.32407407  1.0
  Ni  Ni405  1  0.11111111  0.11111111  0.26851852  1.0
  Ni  Ni406  1  0.11111111  0.44444444  0.26851852  1.0
  Ni  Ni407  1  0.11111111  0.77777778  0.26851852  1.0
  Ni  Ni408  1  0.44444444  0.11111111  0.26851852  1.0
  Ni  Ni409  1  0.44444444  0.44444444  0.26851852  1.0
  Ni  Ni410  1  0.44444444  0.77777778  0.26851852  1.0
  Ni  Ni411  1  0.77777778  0.11111111  0.26851852  1.0
  Ni  Ni412  1  0.77777778  0.44444444  0.26851852  1.0
  Ni  Ni413  1  0.77777778  0.77777778  0.26851852  1.0
  Ni  Ni414  1  0.22222222  0.22222222  0.28703704  1.0
  Ni  Ni415  1  0.22222222  0.55555556  0.28703704  1.0
  Ni  Ni416  1  0.22222222  0.88888889  0.28703704  1.0
  Ni  Ni417  1  0.55555556  0.22222222  0.28703704  1.0
  Ni  Ni418  1  0.55555556  0.55555556  0.28703704  1.0
  Ni  Ni419  1  0.55555556  0.88888889  0.28703704  1.0
  Ni  Ni420  1  0.88888889  0.22222222  0.28703704  1.0
  Ni  Ni421  1  0.88888889  0.55555556  0.28703704  1.0
  Ni  Ni422  1  0.88888889  0.88888889  0.28703704  1.0
  Ni  Ni423  1  0.05555556  0.05555556  0.23148148  1.0
  Ni  Ni424  1  0.05555556  0.38888889  0.23148148  1.0
  Ni  Ni425  1  0.05555556  0.72222222  0.23148148  1.0
  Ni  Ni426  1  0.38888889  0.05555556  0.23148148  1.0
  Ni  Ni427  1  0.38888889  0.38888889  0.23148148  1.0
  Ni  Ni428  1  0.38888889  0.72222222  0.23148148  1.0
  Ni  Ni429  1  0.72222222  0.05555556  0.23148148  1.0
  Ni  Ni430  1  0.72222222  0.38888889  0.23148148  1.0
  Ni  Ni431  1  0.72222222  0.72222222  0.23148148  1.0
  Zr  Zr432  1  0.30427550  0.14528917  0.42379250  1.0
  Zr  Zr433  1  0.30427550  0.47862250  0.42379250  1.0
  Zr  Zr434  1  0.30427550  0.81195583  0.42379250  1.0
  Zr  Zr435  1  0.63760883  0.14528917  0.42379250  1.0
  Zr  Zr436  1  0.63760883  0.47862250  0.42379250  1.0
  Zr  Zr437  1  0.63760883  0.81195583  0.42379250  1.0
  Zr  Zr438  1  0.97094217  0.14528917  0.42379250  1.0
  Zr  Zr439  1  0.97094217  0.47862250  0.42379250  1.0
  Zr  Zr440  1  0.97094217  0.81195583  0.42379250  1.0
  Zr  Zr441  1  0.13760883  0.31195583  0.36823694  1.0
  Zr  Zr442  1  0.13760883  0.64528917  0.36823694  1.0
  Zr  Zr443  1  0.13760883  0.97862250  0.36823694  1.0
  Zr  Zr444  1  0.47094217  0.31195583  0.36823694  1.0
  Zr  Zr445  1  0.47094217  0.64528917  0.36823694  1.0
  Zr  Zr446  1  0.47094217  0.97862250  0.36823694  1.0
  Zr  Zr447  1  0.80427550  0.31195583  0.36823694  1.0
  Zr  Zr448  1  0.80427550  0.64528917  0.36823694  1.0
  Zr  Zr449  1  0.80427550  0.97862250  0.36823694  1.0
  Zr  Zr450  1  0.27521767  0.11623133  0.37792289  1.0
  Zr  Zr451  1  0.27521767  0.44956467  0.37792289  1.0
  Zr  Zr452  1  0.27521767  0.78289800  0.37792289  1.0
  Zr  Zr453  1  0.60855100  0.11623133  0.37792289  1.0
  Zr  Zr454  1  0.60855100  0.44956467  0.37792289  1.0
  Zr  Zr455  1  0.60855100  0.78289800  0.37792289  1.0
  Zr  Zr456  1  0.94188433  0.11623133  0.37792289  1.0
  Zr  Zr457  1  0.94188433  0.44956467  0.37792289  1.0
  Zr  Zr458  1  0.94188433  0.78289800  0.37792289  1.0
  Zr  Zr459  1  0.10855100  0.28289800  0.43347844  1.0
  Zr  Zr460  1  0.10855100  0.61623133  0.43347844  1.0
  Zr  Zr461  1  0.10855100  0.94956467  0.43347844  1.0
  Zr  Zr462  1  0.44188433  0.28289800  0.43347844  1.0
  Zr  Zr463  1  0.44188433  0.61623133  0.43347844  1.0
  Zr  Zr464  1  0.44188433  0.94956467  0.43347844  1.0
  Zr  Zr465  1  0.77521767  0.28289800  0.43347844  1.0
  Zr  Zr466  1  0.77521767  0.61623133  0.43347844  1.0
  Zr  Zr467  1  0.77521767  0.94956467  0.43347844  1.0
  Zr  Zr468  1  0.19572450  0.19572450  0.35142517  1.0
  Zr  Zr469  1  0.19572450  0.52905783  0.35142517  1.0
  Zr  Zr470  1  0.19572450  0.86239117  0.35142517  1.0
  Zr  Zr471  1  0.52905783  0.19572450  0.35142517  1.0
  Zr  Zr472  1  0.52905783  0.52905783  0.35142517  1.0
  Zr  Zr473  1  0.52905783  0.86239117  0.35142517  1.0
  Zr  Zr474  1  0.86239117  0.19572450  0.35142517  1.0
  Zr  Zr475  1  0.86239117  0.52905783  0.35142517  1.0
  Zr  Zr476  1  0.86239117  0.86239117  0.35142517  1.0
  Zr  Zr477  1  0.02905783  0.02905783  0.40698072  1.0
  Zr  Zr478  1  0.02905783  0.36239117  0.40698072  1.0
  Zr  Zr479  1  0.02905783  0.69572450  0.40698072  1.0
  Zr  Zr480  1  0.36239117  0.02905783  0.40698072  1.0
  Zr  Zr481  1  0.36239117  0.36239117  0.40698072  1.0
  Zr  Zr482  1  0.36239117  0.69572450  0.40698072  1.0
  Zr  Zr483  1  0.69572450  0.02905783  0.40698072  1.0
  Zr  Zr484  1  0.69572450  0.36239117  0.40698072  1.0
  Zr  Zr485  1  0.69572450  0.69572450  0.40698072  1.0
  Zr  Zr486  1  0.19572450  0.02137750  0.40954083  1.0
  Zr  Zr487  1  0.19572450  0.35471083  0.40954083  1.0
  Zr  Zr488  1  0.19572450  0.68804417  0.40954083  1.0
  Zr  Zr489  1  0.52905783  0.02137750  0.40954083  1.0
  Zr  Zr490  1  0.52905783  0.35471083  0.40954083  1.0
  Zr  Zr491  1  0.52905783  0.68804417  0.40954083  1.0
  Zr  Zr492  1  0.86239117  0.02137750  0.40954083  1.0
  Zr  Zr493  1  0.86239117  0.35471083  0.40954083  1.0
  Zr  Zr494  1  0.86239117  0.68804417  0.40954083  1.0
  Zr  Zr495  1  0.02905783  0.18804417  0.35398528  1.0
  Zr  Zr496  1  0.02905783  0.52137750  0.35398528  1.0
  Zr  Zr497  1  0.02905783  0.85471083  0.35398528  1.0
  Zr  Zr498  1  0.36239117  0.18804417  0.35398528  1.0
  Zr  Zr499  1  0.36239117  0.52137750  0.35398528  1.0
  Zr  Zr500  1  0.36239117  0.85471083  0.35398528  1.0
  Zr  Zr501  1  0.69572450  0.18804417  0.35398528  1.0
  Zr  Zr502  1  0.69572450  0.52137750  0.35398528  1.0
  Zr  Zr503  1  0.69572450  0.85471083  0.35398528  1.0
  Zr  Zr504  1  0.22478233  0.05043533  0.34429933  1.0
  Zr  Zr505  1  0.22478233  0.38376867  0.34429933  1.0
  Zr  Zr506  1  0.22478233  0.71710200  0.34429933  1.0
  Zr  Zr507  1  0.55811567  0.05043533  0.34429933  1.0
  Zr  Zr508  1  0.55811567  0.38376867  0.34429933  1.0
  Zr  Zr509  1  0.55811567  0.71710200  0.34429933  1.0
  Zr  Zr510  1  0.89144900  0.05043533  0.34429933  1.0
  Zr  Zr511  1  0.89144900  0.38376867  0.34429933  1.0
  Zr  Zr512  1  0.89144900  0.71710200  0.34429933  1.0
  Zr  Zr513  1  0.05811567  0.21710200  0.39985489  1.0
  Zr  Zr514  1  0.05811567  0.55043533  0.39985489  1.0
  Zr  Zr515  1  0.05811567  0.88376867  0.39985489  1.0
  Zr  Zr516  1  0.39144900  0.21710200  0.39985489  1.0
  Zr  Zr517  1  0.39144900  0.55043533  0.39985489  1.0
  Zr  Zr518  1  0.39144900  0.88376867  0.39985489  1.0
  Zr  Zr519  1  0.72478233  0.21710200  0.39985489  1.0
  Zr  Zr520  1  0.72478233  0.55043533  0.39985489  1.0
  Zr  Zr521  1  0.72478233  0.88376867  0.39985489  1.0
  Zr  Zr522  1  0.30427550  0.30427550  0.37079706  1.0
  Zr  Zr523  1  0.30427550  0.63760883  0.37079706  1.0
  Zr  Zr524  1  0.30427550  0.97094217  0.37079706  1.0
  Zr  Zr525  1  0.63760883  0.30427550  0.37079706  1.0
  Zr  Zr526  1  0.63760883  0.63760883  0.37079706  1.0
  Zr  Zr527  1  0.63760883  0.97094217  0.37079706  1.0
  Zr  Zr528  1  0.97094217  0.30427550  0.37079706  1.0
  Zr  Zr529  1  0.97094217  0.63760883  0.37079706  1.0
  Zr  Zr530  1  0.97094217  0.97094217  0.37079706  1.0
  Zr  Zr531  1  0.13760883  0.13760883  0.42635261  1.0
  Zr  Zr532  1  0.13760883  0.47094217  0.42635261  1.0
  Zr  Zr533  1  0.13760883  0.80427550  0.42635261  1.0
  Zr  Zr534  1  0.47094217  0.13760883  0.42635261  1.0
  Zr  Zr535  1  0.47094217  0.47094217  0.42635261  1.0
  Zr  Zr536  1  0.47094217  0.80427550  0.42635261  1.0
  Zr  Zr537  1  0.80427550  0.13760883  0.42635261  1.0
  Zr  Zr538  1  0.80427550  0.47094217  0.42635261  1.0
  Zr  Zr539  1  0.80427550  0.80427550  0.42635261  1.0
  Ni  Ni540  1  0.27777778  0.27777778  0.43518519  1.0
  Ni  Ni541  1  0.27777778  0.61111111  0.43518519  1.0
  Ni  Ni542  1  0.27777778  0.94444444  0.43518519  1.0
  Ni  Ni543  1  0.61111111  0.27777778  0.43518519  1.0
  Ni  Ni544  1  0.61111111  0.61111111  0.43518519  1.0
  Ni  Ni545  1  0.61111111  0.94444444  0.43518519  1.0
  Ni  Ni546  1  0.94444444  0.27777778  0.43518519  1.0
  Ni  Ni547  1  0.94444444  0.61111111  0.43518519  1.0
  Ni  Ni548  1  0.94444444  0.94444444  0.43518519  1.0
  Ni  Ni549  1  0.11111111  0.11111111  0.37962963  1.0
  Ni  Ni550  1  0.11111111  0.44444444  0.37962963  1.0
  Ni  Ni551  1  0.11111111  0.77777778  0.37962963  1.0
  Ni  Ni552  1  0.44444444  0.11111111  0.37962963  1.0
  Ni  Ni553  1  0.44444444  0.44444444  0.37962963  1.0
  Ni  Ni554  1  0.44444444  0.77777778  0.37962963  1.0
  Ni  Ni555  1  0.77777778  0.11111111  0.37962963  1.0
  Ni  Ni556  1  0.77777778  0.44444444  0.37962963  1.0
  Ni  Ni557  1  0.77777778  0.77777778  0.37962963  1.0
  Ni  Ni558  1  0.22222222  0.22222222  0.39814815  1.0
  Ni  Ni559  1  0.22222222  0.55555556  0.39814815  1.0
  Ni  Ni560  1  0.22222222  0.88888889  0.39814815  1.0
  Ni  Ni561  1  0.55555556  0.22222222  0.39814815  1.0
  Ni  Ni562  1  0.55555556  0.55555556  0.39814815  1.0
  Ni  Ni563  1  0.55555556  0.88888889  0.39814815  1.0
  Ni  Ni564  1  0.88888889  0.22222222  0.39814815  1.0
  Ni  Ni565  1  0.88888889  0.55555556  0.39814815  1.0
  Ni  Ni566  1  0.88888889  0.88888889  0.39814815  1.0
  Ni  Ni567  1  0.05555556  0.05555556  0.34259259  1.0
  Ni  Ni568  1  0.05555556  0.38888889  0.34259259  1.0
  Ni  Ni569  1  0.05555556  0.72222222  0.34259259  1.0
  Ni  Ni570  1  0.38888889  0.05555556  0.34259259  1.0
  Ni  Ni571  1  0.38888889  0.38888889  0.34259259  1.0
  Ni  Ni572  1  0.38888889  0.72222222  0.34259259  1.0
  Ni  Ni573  1  0.72222222  0.05555556  0.34259259  1.0
  Ni  Ni574  1  0.72222222  0.38888889  0.34259259  1.0
  Ni  Ni575  1  0.72222222  0.72222222  0.34259259  1.0
