# generated using pymatgen
data_Zr3Ni
_symmetry_space_group_name_H-M   'P 1'
_cell_length_a   18.19325523
_cell_length_b   18.19325523
_cell_length_c   34.27406500
_cell_angle_alpha   90.00000000
_cell_angle_beta   90.00000000
_cell_angle_gamma   120.00000000
_symmetry_Int_Tables_number   1
_chemical_formula_structural   Zr3Ni
_chemical_formula_sum   'Zr162 Ni54'
_cell_volume   9824.64964706
_cell_formula_units_Z   54
loop_
 _symmetry_equiv_pos_site_id
 _symmetry_equiv_pos_as_xyz
  1  'x, y, z'
loop_
 _atom_site_type_symbol
 _atom_site_label
 _atom_site_symmetry_multiplicity
 _atom_site_fract_x
 _atom_site_fract_y
 _atom_site_fract_z
 _atom_site_occupancy
  Zr  Zr0  1  0.21710200  0.27521767  0.03571429  1.0
  Zr  Zr1  1  0.21710200  0.60855100  0.03571429  1.0
  Zr  Zr2  1  0.21710200  0.94188433  0.03571429  1.0
  Zr  Zr3  1  0.55043533  0.27521767  0.03571429  1.0
  Zr  Zr4  1  0.55043533  0.60855100  0.03571429  1.0
  Zr  Zr5  1  0.55043533  0.94188433  0.03571429  1.0
  Zr  Zr6  1  0.88376867  0.27521767  0.03571429  1.0
  Zr  Zr7  1  0.88376867  0.60855100  0.03571429  1.0
  Zr  Zr8  1  0.88376867  0.94188433  0.03571429  1.0
  Zr  Zr9  1  0.27521767  0.21710200  0.10714286  1.0
  Zr  Zr10  1  0.27521767  0.55043533  0.10714286  1.0
  Zr  Zr11  1  0.27521767  0.88376867  0.10714286  1.0
  Zr  Zr12  1  0.60855100  0.21710200  0.10714286  1.0
  Zr  Zr13  1  0.60855100  0.55043533  0.10714286  1.0
  Zr  Zr14  1  0.60855100  0.88376867  0.10714286  1.0
  Zr  Zr15  1  0.94188433  0.21710200  0.10714286  1.0
  Zr  Zr16  1  0.94188433  0.55043533  0.10714286  1.0
  Zr  Zr17  1  0.94188433  0.88376867  0.10714286  1.0
  Zr  Zr18  1  0.27521767  0.05811567  0.10714286  1.0
  Zr  Zr19  1  0.27521767  0.39144900  0.10714286  1.0
  Zr  Zr20  1  0.27521767  0.72478233  0.10714286  1.0
  Zr  Zr21  1  0.60855100  0.05811567  0.10714286  1.0
  Zr  Zr22  1  0.60855100  0.39144900  0.10714286  1.0
  Zr  Zr23  1  0.60855100  0.72478233  0.10714286  1.0
  Zr  Zr24  1  0.94188433  0.05811567  0.10714286  1.0
  Zr  Zr25  1  0.94188433  0.39144900  0.10714286  1.0
  Zr  Zr26  1  0.94188433  0.72478233  0.10714286  1.0
  Zr  Zr27  1  0.11623133  0.05811567  0.10714286  1.0
  Zr  Zr28  1  0.11623133  0.39144900  0.10714286  1.0
  Zr  Zr29  1  0.11623133  0.72478233  0.10714286  1.0
  Zr  Zr30  1  0.44956467  0.05811567  0.10714286  1.0
  Zr  Zr31  1  0.44956467  0.39144900  0.10714286  1.0
  Zr  Zr32  1  0.44956467  0.72478233  0.10714286  1.0
  Zr  Zr33  1  0.78289800  0.05811567  0.10714286  1.0
  Zr  Zr34  1  0.78289800  0.39144900  0.10714286  1.0
  Zr  Zr35  1  0.78289800  0.72478233  0.10714286  1.0
  Zr  Zr36  1  0.05811567  0.11623133  0.03571429  1.0
  Zr  Zr37  1  0.05811567  0.44956467  0.03571429  1.0
  Zr  Zr38  1  0.05811567  0.78289800  0.03571429  1.0
  Zr  Zr39  1  0.39144900  0.11623133  0.03571429  1.0
  Zr  Zr40  1  0.39144900  0.44956467  0.03571429  1.0
  Zr  Zr41  1  0.39144900  0.78289800  0.03571429  1.0
  Zr  Zr42  1  0.72478233  0.11623133  0.03571429  1.0
  Zr  Zr43  1  0.72478233  0.44956467  0.03571429  1.0
  Zr  Zr44  1  0.72478233  0.78289800  0.03571429  1.0
  Zr  Zr45  1  0.05811567  0.27521767  0.03571429  1.0
  Zr  Zr46  1  0.05811567  0.60855100  0.03571429  1.0
  Zr  Zr47  1  0.05811567  0.94188433  0.03571429  1.0
  Zr  Zr48  1  0.39144900  0.27521767  0.03571429  1.0
  Zr  Zr49  1  0.39144900  0.60855100  0.03571429  1.0
  Zr  Zr50  1  0.39144900  0.94188433  0.03571429  1.0
  Zr  Zr51  1  0.72478233  0.27521767  0.03571429  1.0
  Zr  Zr52  1  0.72478233  0.60855100  0.03571429  1.0
  Zr  Zr53  1  0.72478233  0.94188433  0.03571429  1.0
  Ni  Ni54  1  0.11111111  0.22222222  0.10714286  1.0
  Ni  Ni55  1  0.11111111  0.55555556  0.10714286  1.0
  Ni  Ni56  1  0.11111111  0.88888889  0.10714286  1.0
  Ni  Ni57  1  0.44444444  0.22222222  0.10714286  1.0
  Ni  Ni58  1  0.44444444  0.55555556  0.10714286  1.0
  Ni  Ni59  1  0.44444444  0.88888889  0.10714286  1.0
  Ni  Ni60  1  0.77777778  0.22222222  0.10714286  1.0
  Ni  Ni61  1  0.77777778  0.55555556  0.10714286  1.0
  Ni  Ni62  1  0.77777778  0.88888889  0.10714286  1.0
  Ni  Ni63  1  0.22222222  0.11111111  0.03571429  1.0
  Ni  Ni64  1  0.22222222  0.44444444  0.03571429  1.0
  Ni  Ni65  1  0.22222222  0.77777778  0.03571429  1.0
  Ni  Ni66  1  0.55555556  0.11111111  0.03571429  1.0
  Ni  Ni67  1  0.55555556  0.44444444  0.03571429  1.0
  Ni  Ni68  1  0.55555556  0.77777778  0.03571429  1.0
  Ni  Ni69  1  0.88888889  0.11111111  0.03571429  1.0
  Ni  Ni70  1  0.88888889  0.44444444  0.03571429  1.0
  Ni  Ni71  1  0.88888889  0.77777778  0.03571429  1.0
  Zr  Zr72  1  0.21710200  0.27521767  0.17857143  1.0
  Zr  Zr73  1  0.21710200  0.60855100  0.17857143  1.0
  Zr  Zr74  1  0.21710200  0.94188433  0.17857143  1.0
  Zr  Zr75  1  0.55043533  0.27521767  0.17857143  1.0
  Zr  Zr76  1  0.55043533  0.60855100  0.17857143  1.0
  Zr  Zr77  1  0.55043533  0.94188433  0.17857143  1.0
  Zr  Zr78  1  0.88376867  0.27521767  0.17857143  1.0
  Zr  Zr79  1  0.88376867  0.60855100  0.17857143  1.0
  Zr  Zr80  1  0.88376867  0.94188433  0.17857143  1.0
  Zr  Zr81  1  0.27521767  0.21710200  0.25000000  1.0
  Zr  Zr82  1  0.27521767  0.55043533  0.25000000  1.0
  Zr  Zr83  1  0.27521767  0.88376867  0.25000000  1.0
  Zr  Zr84  1  0.60855100  0.21710200  0.25000000  1.0
  Zr  Zr85  1  0.60855100  0.55043533  0.25000000  1.0
  Zr  Zr86  1  0.60855100  0.88376867  0.25000000  1.0
  Zr  Zr87  1  0.94188433  0.21710200  0.25000000  1.0
  Zr  Zr88  1  0.94188433  0.55043533  0.25000000  1.0
  Zr  Zr89  1  0.94188433  0.88376867  0.25000000  1.0
  Zr  Zr90  1  0.27521767  0.05811567  0.25000000  1.0
  Zr  Zr91  1  0.27521767  0.39144900  0.25000000  1.0
  Zr  Zr92  1  0.27521767  0.72478233  0.25000000  1.0
  Zr  Zr93  1  0.60855100  0.05811567  0.25000000  1.0
  Zr  Zr94  1  0.60855100  0.39144900  0.25000000  1.0
  Zr  Zr95  1  0.60855100  0.72478233  0.25000000  1.0
  Zr  Zr96  1  0.94188433  0.05811567  0.25000000  1.0
  Zr  Zr97  1  0.94188433  0.39144900  0.25000000  1.0
  Zr  Zr98  1  0.94188433  0.72478233  0.25000000  1.0
  Zr  Zr99  1  0.11623133  0.05811567  0.25000000  1.0
  Zr  Zr100  1  0.11623133  0.39144900  0.25000000  1.0
  Zr  Zr101  1  0.11623133  0.72478233  0.25000000  1.0
  Zr  Zr102  1  0.44956467  0.05811567  0.25000000  1.0
  Zr  Zr103  1  0.44956467  0.39144900  0.25000000  1.0
  Zr  Zr104  1  0.44956467  0.72478233  0.25000000  1.0
  Zr  Zr105  1  0.78289800  0.05811567  0.25000000  1.0
  Zr  Zr106  1  0.78289800  0.39144900  0.25000000  1.0
  Zr  Zr107  1  0.78289800  0.72478233  0.25000000  1.0
  Zr  Zr108  1  0.05811567  0.11623133  0.17857143  1.0
  Zr  Zr109  1  0.05811567  0.44956467  0.17857143  1.0
  Zr  Zr110  1  0.05811567  0.78289800  0.17857143  1.0
  Zr  Zr111  1  0.39144900  0.11623133  0.17857143  1.0
  Zr  Zr112  1  0.39144900  0.44956467  0.17857143  1.0
  Zr  Zr113  1  0.39144900  0.78289800  0.17857143  1.0
  Zr  Zr114  1  0.72478233  0.11623133  0.17857143  1.0
  Zr  Zr115  1  0.72478233  0.44956467  0.17857143  1.0
  Zr  Zr116  1  0.72478233  0.78289800  0.17857143  1.0
  Zr  Zr117  1  0.05811567  0.27521767  0.17857143  1.0
  Zr  Zr118  1  0.05811567  0.60855100  0.17857143  1.0
  Zr  Zr119  1  0.05811567  0.94188433  0.17857143  1.0
  Zr  Zr120  1  0.39144900  0.27521767  0.17857143  1.0
  Zr  Zr121  1  0.39144900  0.60855100  0.17857143  1.0
  Zr  Zr122  1  0.39144900  0.94188433  0.17857143  1.0
  Zr  Zr123  1  0.72478233  0.27521767  0.17857143  1.0
  Zr  Zr124  1  0.72478233  0.60855100  0.17857143  1.0
  Zr  Zr125  1  0.72478233  0.94188433  0.17857143  1.0
  Ni  Ni126  1  0.11111111  0.22222222  0.25000000  1.0
  Ni  Ni127  1  0.11111111  0.55555556  0.25000000  1.0
  Ni  Ni128  1  0.11111111  0.88888889  0.25000000  1.0
  Ni  Ni129  1  0.44444444  0.22222222  0.25000000  1.0
  Ni  Ni130  1  0.44444444  0.55555556  0.25000000  1.0
  Ni  Ni131  1  0.44444444  0.88888889  0.25000000  1.0
  Ni  Ni132  1  0.77777778  0.22222222  0.25000000  1.0
  Ni  Ni133  1  0.77777778  0.55555556  0.25000000  1.0
  Ni  Ni134  1  0.77777778  0.88888889  0.25000000  1.0
  Ni  Ni135  1  0.22222222  0.11111111  0.17857143  1.0
  Ni  Ni136  1  0.22222222  0.44444444  0.17857143  1.0
  Ni  Ni137  1  0.22222222  0.77777778  0.17857143  1.0
  Ni  Ni138  1  0.55555556  0.11111111  0.17857143  1.0
  Ni  Ni139  1  0.55555556  0.44444444  0.17857143  1.0
  Ni  Ni140  1  0.55555556  0.77777778  0.17857143  1.0
  Ni  Ni141  1  0.88888889  0.11111111  0.17857143  1.0
  Ni  Ni142  1  0.88888889  0.44444444  0.17857143  1.0
  Ni  Ni143  1  0.88888889  0.77777778  0.17857143  1.0
  Zr  Zr144  1  0.21710200  0.27521767  0.32142857  1.0
  Zr  Zr145  1  0.21710200  0.60855100  0.32142857  1.0
  Zr  Zr146  1  0.21710200  0.94188433  0.32142857  1.0
  Zr  Zr147  1  0.55043533  0.27521767  0.32142857  1.0
  Zr  Zr148  1  0.55043533  0.60855100  0.32142857  1.0
  Zr  Zr149  1  0.55043533  0.94188433  0.32142857  1.0
  Zr  Zr150  1  0.88376867  0.27521767  0.32142857  1.0
  Zr  Zr151  1  0.88376867  0.60855100  0.32142857  1.0
  Zr  Zr152  1  0.88376867  0.94188433  0.32142857  1.0
  Zr  Zr153  1  0.27521767  0.21710200  0.39285714  1.0
  Zr  Zr154  1  0.27521767  0.55043533  0.39285714  1.0
  Zr  Zr155  1  0.27521767  0.88376867  0.39285714  1.0
  Zr  Zr156  1  0.60855100  0.21710200  0.39285714  1.0
  Zr  Zr157  1  0.60855100  0.55043533  0.39285714  1.0
  Zr  Zr158  1  0.60855100  0.88376867  0.39285714  1.0
  Zr  Zr159  1  0.94188433  0.21710200  0.39285714  1.0
  Zr  Zr160  1  0.94188433  0.55043533  0.39285714  1.0
  Zr  Zr161  1  0.94188433  0.88376867  0.39285714  1.0
  Zr  Zr162  1  0.27521767  0.05811567  0.39285714  1.0
  Zr  Zr163  1  0.27521767  0.39144900  0.39285714  1.0
  Zr  Zr164  1  0.27521767  0.72478233  0.39285714  1.0
  Zr  Zr165  1  0.60855100  0.05811567  0.39285714  1.0
  Zr  Zr166  1  0.60855100  0.39144900  0.39285714  1.0
  Zr  Zr167  1  0.60855100  0.72478233  0.39285714  1.0
  Zr  Zr168  1  0.94188433  0.05811567  0.39285714  1.0
  Zr  Zr169  1  0.94188433  0.39144900  0.39285714  1.0
  Zr  Zr170  1  0.94188433  0.72478233  0.39285714  1.0
  Zr  Zr171  1  0.11623133  0.05811567  0.39285714  1.0
  Zr  Zr172  1  0.11623133  0.39144900  0.39285714  1.0
  Zr  Zr173  1  0.11623133  0.72478233  0.39285714  1.0
  Zr  Zr174  1  0.44956467  0.05811567  0.39285714  1.0
  Zr  Zr175  1  0.44956467  0.39144900  0.39285714  1.0
  Zr  Zr176  1  0.44956467  0.72478233  0.39285714  1.0
  Zr  Zr177  1  0.78289800  0.05811567  0.39285714  1.0
  Zr  Zr178  1  0.78289800  0.39144900  0.39285714  1.0
  Zr  Zr179  1  0.78289800  0.72478233  0.39285714  1.0
  Zr  Zr180  1  0.05811567  0.11623133  0.32142857  1.0
  Zr  Zr181  1  0.05811567  0.44956467  0.32142857  1.0
  Zr  Zr182  1  0.05811567  0.78289800  0.32142857  1.0
  Zr  Zr183  1  0.39144900  0.11623133  0.32142857  1.0
  Zr  Zr184  1  0.39144900  0.44956467  0.32142857  1.0
  Zr  Zr185  1  0.39144900  0.78289800  0.32142857  1.0
  Zr  Zr186  1  0.72478233  0.11623133  0.32142857  1.0
  Zr  Zr187  1  0.72478233  0.44956467  0.32142857  1.0
  Zr  Zr188  1  0.72478233  0.78289800  0.32142857  1.0
  Zr  Zr189  1  0.05811567  0.27521767  0.32142857  1.0
  Zr  Zr190  1  0.05811567  0.60855100  0.32142857  1.0
  Zr  Zr191  1  0.05811567  0.94188433  0.32142857  1.0
  Zr  Zr192  1  0.39144900  0.27521767  0.32142857  1.0
  Zr  Zr193  1  0.39144900  0.60855100  0.32142857  1.0
  Zr  Zr194  1  0.39144900  0.94188433  0.32142857  1.0
  Zr  Zr195  1  0.72478233  0.27521767  0.32142857  1.0
  Zr  Zr196  1  0.72478233  0.60855100  0.32142857  1.0
  Zr  Zr197  1  0.72478233  0.94188433  0.32142857  1.0
  Ni  Ni198  1  0.11111111  0.22222222  0.39285714  1.0
  Ni  Ni199  1  0.11111111  0.55555556  0.39285714  1.0
  Ni  Ni200  1  0.11111111  0.88888889  0.39285714  1.0
  Ni  Ni201  1  0.44444444  0.22222222  0.39285714  1.0
  Ni  Ni202  1  0.44444444  0.55555556  0.39285714  1.0
  Ni  Ni203  1  0.44444444  0.88888889  0.39285714  1.0
  Ni  Ni204  1  0.77777778  0.22222222  0.39285714  1.0
  Ni  Ni205  1  0.77777778  0.55555556  0.39285714  1.0
  Ni  Ni206  1  0.77777778  0.88888889  0.39285714  1.0
  Ni  Ni207  1  0.22222222  0.11111111  0.32142857  1.0
  Ni  Ni208  1  0.22222222  0.44444444  0.32142857  1.0
  Ni  Ni209  1  0.22222222  0.77777778  0.32142857  1.0
  Ni  Ni210  1  0.55555556  0.11111111  0.32142857  1.0
  Ni  Ni211  1  0.55555556  0.44444444  0.32142857  1.0
  Ni  Ni212  1  0.55555556  0.77777778  0.32142857  1.0
  Ni  Ni213  1  0.88888889  0.11111111  0.32142857  1.0
  Ni  Ni214  1  0.88888889  0.44444444  0.32142857  1.0
  Ni  Ni215  1  0.88888889  0.77777778  0.32142857  1.0
