# generated using pymatgen
data_Zr3Ni
_symmetry_space_group_name_H-M   'P 1'
_cell_length_a   23.38285437
_cell_length_b   34.55499828
_cell_length_c   29.46549512
_cell_angle_alpha   87.56208789
_cell_angle_beta   88.19888321
_cell_angle_gamma   70.77694811
_symmetry_Int_Tables_number   1
_chemical_formula_structural   Zr3Ni
_chemical_formula_sum   'Zr324 Ni108'
_cell_volume   22456.34205042
_cell_formula_units_Z   108
loop_
 _symmetry_equiv_pos_site_id
 _symmetry_equiv_pos_as_xyz
  1  'x, y, z'
loop_
 _atom_site_type_symbol
 _atom_site_label
 _atom_site_symmetry_multiplicity
 _atom_site_fract_x
 _atom_site_fract_y
 _atom_site_fract_z
 _atom_site_occupancy
  Ni  Ni0  1  0.11805556  0.23090278  0.99479167  1.0
  Ni  Ni1  1  0.11805556  0.56423611  0.99479167  1.0
  Ni  Ni2  1  0.11805556  0.89756944  0.99479167  1.0
  Ni  Ni3  1  0.45138889  0.23090278  0.99479167  1.0
  Ni  Ni4  1  0.45138889  0.56423611  0.99479167  1.0
  Ni  Ni5  1  0.45138889  0.89756944  0.99479167  1.0
  Ni  Ni6  1  0.78472222  0.23090278  0.99479167  1.0
  Ni  Ni7  1  0.78472222  0.56423611  0.99479167  1.0
  Ni  Ni8  1  0.78472222  0.89756944  0.99479167  1.0
  Ni  Ni9  1  0.20138889  0.00173611  0.93229167  1.0
  Ni  Ni10  1  0.20138889  0.33506944  0.93229167  1.0
  Ni  Ni11  1  0.20138889  0.66840278  0.93229167  1.0
  Ni  Ni12  1  0.53472222  0.00173611  0.93229167  1.0
  Ni  Ni13  1  0.53472222  0.33506944  0.93229167  1.0
  Ni  Ni14  1  0.53472222  0.66840278  0.93229167  1.0
  Ni  Ni15  1  0.86805556  0.00173611  0.93229167  1.0
  Ni  Ni16  1  0.86805556  0.33506944  0.93229167  1.0
  Ni  Ni17  1  0.86805556  0.66840278  0.93229167  1.0
  Ni  Ni18  1  0.04861111  0.31076389  0.88020833  1.0
  Ni  Ni19  1  0.04861111  0.64409722  0.88020833  1.0
  Ni  Ni20  1  0.04861111  0.97743056  0.88020833  1.0
  Ni  Ni21  1  0.38194444  0.31076389  0.88020833  1.0
  Ni  Ni22  1  0.38194444  0.64409722  0.88020833  1.0
  Ni  Ni23  1  0.38194444  0.97743056  0.88020833  1.0
  Ni  Ni24  1  0.71527778  0.31076389  0.88020833  1.0
  Ni  Ni25  1  0.71527778  0.64409722  0.88020833  1.0
  Ni  Ni26  1  0.71527778  0.97743056  0.88020833  1.0
  Ni  Ni27  1  0.29861111  0.20659722  0.94270833  1.0
  Ni  Ni28  1  0.29861111  0.53993056  0.94270833  1.0
  Ni  Ni29  1  0.29861111  0.87326389  0.94270833  1.0
  Ni  Ni30  1  0.63194444  0.20659722  0.94270833  1.0
  Ni  Ni31  1  0.63194444  0.53993056  0.94270833  1.0
  Ni  Ni32  1  0.63194444  0.87326389  0.94270833  1.0
  Ni  Ni33  1  0.96527778  0.20659722  0.94270833  1.0
  Ni  Ni34  1  0.96527778  0.53993056  0.94270833  1.0
  Ni  Ni35  1  0.96527778  0.87326389  0.94270833  1.0
  Ni  Ni36  1  0.28472222  0.10590278  0.86979167  1.0
  Ni  Ni37  1  0.28472222  0.43923611  0.86979167  1.0
  Ni  Ni38  1  0.28472222  0.77256944  0.86979167  1.0
  Ni  Ni39  1  0.61805556  0.10590278  0.86979167  1.0
  Ni  Ni40  1  0.61805556  0.43923611  0.86979167  1.0
  Ni  Ni41  1  0.61805556  0.77256944  0.86979167  1.0
  Ni  Ni42  1  0.95138889  0.10590278  0.86979167  1.0
  Ni  Ni43  1  0.95138889  0.43923611  0.86979167  1.0
  Ni  Ni44  1  0.95138889  0.77256944  0.86979167  1.0
  Ni  Ni45  1  0.03472222  0.21006944  0.80729167  1.0
  Ni  Ni46  1  0.03472222  0.54340278  0.80729167  1.0
  Ni  Ni47  1  0.03472222  0.87673611  0.80729167  1.0
  Ni  Ni48  1  0.36805556  0.21006944  0.80729167  1.0
  Ni  Ni49  1  0.36805556  0.54340278  0.80729167  1.0
  Ni  Ni50  1  0.36805556  0.87673611  0.80729167  1.0
  Ni  Ni51  1  0.70138889  0.21006944  0.80729167  1.0
  Ni  Ni52  1  0.70138889  0.54340278  0.80729167  1.0
  Ni  Ni53  1  0.70138889  0.87673611  0.80729167  1.0
  Ni  Ni54  1  0.21527778  0.18576389  0.75520833  1.0
  Ni  Ni55  1  0.21527778  0.51909722  0.75520833  1.0
  Ni  Ni56  1  0.21527778  0.85243056  0.75520833  1.0
  Ni  Ni57  1  0.54861111  0.18576389  0.75520833  1.0
  Ni  Ni58  1  0.54861111  0.51909722  0.75520833  1.0
  Ni  Ni59  1  0.54861111  0.85243056  0.75520833  1.0
  Ni  Ni60  1  0.88194444  0.18576389  0.75520833  1.0
  Ni  Ni61  1  0.88194444  0.51909722  0.75520833  1.0
  Ni  Ni62  1  0.88194444  0.85243056  0.75520833  1.0
  Ni  Ni63  1  0.13194444  0.08159722  0.81770833  1.0
  Ni  Ni64  1  0.13194444  0.41493056  0.81770833  1.0
  Ni  Ni65  1  0.13194444  0.74826389  0.81770833  1.0
  Ni  Ni66  1  0.46527778  0.08159722  0.81770833  1.0
  Ni  Ni67  1  0.46527778  0.41493056  0.81770833  1.0
  Ni  Ni68  1  0.46527778  0.74826389  0.81770833  1.0
  Ni  Ni69  1  0.79861111  0.08159722  0.81770833  1.0
  Ni  Ni70  1  0.79861111  0.41493056  0.81770833  1.0
  Ni  Ni71  1  0.79861111  0.74826389  0.81770833  1.0
  Ni  Ni72  1  0.11805556  0.31423611  0.74479167  1.0
  Ni  Ni73  1  0.11805556  0.64756944  0.74479167  1.0
  Ni  Ni74  1  0.11805556  0.98090278  0.74479167  1.0
  Ni  Ni75  1  0.45138889  0.31423611  0.74479167  1.0
  Ni  Ni76  1  0.45138889  0.64756944  0.74479167  1.0
  Ni  Ni77  1  0.45138889  0.98090278  0.74479167  1.0
  Ni  Ni78  1  0.78472222  0.31423611  0.74479167  1.0
  Ni  Ni79  1  0.78472222  0.64756944  0.74479167  1.0
  Ni  Ni80  1  0.78472222  0.98090278  0.74479167  1.0
  Ni  Ni81  1  0.20138889  0.08506944  0.68229167  1.0
  Ni  Ni82  1  0.20138889  0.41840278  0.68229167  1.0
  Ni  Ni83  1  0.20138889  0.75173611  0.68229167  1.0
  Ni  Ni84  1  0.53472222  0.08506944  0.68229167  1.0
  Ni  Ni85  1  0.53472222  0.41840278  0.68229167  1.0
  Ni  Ni86  1  0.53472222  0.75173611  0.68229167  1.0
  Ni  Ni87  1  0.86805556  0.08506944  0.68229167  1.0
  Ni  Ni88  1  0.86805556  0.41840278  0.68229167  1.0
  Ni  Ni89  1  0.86805556  0.75173611  0.68229167  1.0
  Ni  Ni90  1  0.04861111  0.06076389  0.63020833  1.0
  Ni  Ni91  1  0.04861111  0.39409722  0.63020833  1.0
  Ni  Ni92  1  0.04861111  0.72743056  0.63020833  1.0
  Ni  Ni93  1  0.38194444  0.06076389  0.63020833  1.0
  Ni  Ni94  1  0.38194444  0.39409722  0.63020833  1.0
  Ni  Ni95  1  0.38194444  0.72743056  0.63020833  1.0
  Ni  Ni96  1  0.71527778  0.06076389  0.63020833  1.0
  Ni  Ni97  1  0.71527778  0.39409722  0.63020833  1.0
  Ni  Ni98  1  0.71527778  0.72743056  0.63020833  1.0
  Ni  Ni99  1  0.29861111  0.28993056  0.69270833  1.0
  Ni  Ni100  1  0.29861111  0.62326389  0.69270833  1.0
  Ni  Ni101  1  0.29861111  0.95659722  0.69270833  1.0
  Ni  Ni102  1  0.63194444  0.28993056  0.69270833  1.0
  Ni  Ni103  1  0.63194444  0.62326389  0.69270833  1.0
  Ni  Ni104  1  0.63194444  0.95659722  0.69270833  1.0
  Ni  Ni105  1  0.96527778  0.28993056  0.69270833  1.0
  Ni  Ni106  1  0.96527778  0.62326389  0.69270833  1.0
  Ni  Ni107  1  0.96527778  0.95659722  0.69270833  1.0
  Zr  Zr108  1  0.08963775  0.15563394  0.97635844  1.0
  Zr  Zr109  1  0.08963775  0.48896727  0.97635844  1.0
  Zr  Zr110  1  0.08963775  0.82230060  0.97635844  1.0
  Zr  Zr111  1  0.42297108  0.15563394  0.97635844  1.0
  Zr  Zr112  1  0.42297108  0.48896727  0.97635844  1.0
  Zr  Zr113  1  0.42297108  0.82230060  0.97635844  1.0
  Zr  Zr114  1  0.75630442  0.15563394  0.97635844  1.0
  Zr  Zr115  1  0.75630442  0.48896727  0.97635844  1.0
  Zr  Zr116  1  0.75630442  0.82230060  0.97635844  1.0
  Zr  Zr117  1  0.17297108  0.25980060  0.91385844  1.0
  Zr  Zr118  1  0.17297108  0.59313394  0.91385844  1.0
  Zr  Zr119  1  0.17297108  0.92646727  0.91385844  1.0
  Zr  Zr120  1  0.50630442  0.25980060  0.91385844  1.0
  Zr  Zr121  1  0.50630442  0.59313394  0.91385844  1.0
  Zr  Zr122  1  0.50630442  0.92646727  0.91385844  1.0
  Zr  Zr123  1  0.83963775  0.25980060  0.91385844  1.0
  Zr  Zr124  1  0.83963775  0.59313394  0.91385844  1.0
  Zr  Zr125  1  0.83963775  0.92646727  0.91385844  1.0
  Zr  Zr126  1  0.20394900  0.16776275  0.93421175  1.0
  Zr  Zr127  1  0.20394900  0.50109608  0.93421175  1.0
  Zr  Zr128  1  0.20394900  0.83442942  0.93421175  1.0
  Zr  Zr129  1  0.53728233  0.16776275  0.93421175  1.0
  Zr  Zr130  1  0.53728233  0.50109608  0.93421175  1.0
  Zr  Zr131  1  0.53728233  0.83442942  0.93421175  1.0
  Zr  Zr132  1  0.87061567  0.16776275  0.93421175  1.0
  Zr  Zr133  1  0.87061567  0.50109608  0.93421175  1.0
  Zr  Zr134  1  0.87061567  0.83442942  0.93421175  1.0
  Zr  Zr135  1  0.12061567  0.06359608  0.99671175  1.0
  Zr  Zr136  1  0.12061567  0.39692942  0.99671175  1.0
  Zr  Zr137  1  0.12061567  0.73026275  0.99671175  1.0
  Zr  Zr138  1  0.45394900  0.06359608  0.99671175  1.0
  Zr  Zr139  1  0.45394900  0.39692942  0.99671175  1.0
  Zr  Zr140  1  0.45394900  0.73026275  0.99671175  1.0
  Zr  Zr141  1  0.78728233  0.06359608  0.99671175  1.0
  Zr  Zr142  1  0.78728233  0.39692942  0.99671175  1.0
  Zr  Zr143  1  0.78728233  0.73026275  0.99671175  1.0
  Zr  Zr144  1  0.32318875  0.11807952  0.96402169  1.0
  Zr  Zr145  1  0.32318875  0.45141285  0.96402169  1.0
  Zr  Zr146  1  0.32318875  0.78474619  0.96402169  1.0
  Zr  Zr147  1  0.65652208  0.11807952  0.96402169  1.0
  Zr  Zr148  1  0.65652208  0.45141285  0.96402169  1.0
  Zr  Zr149  1  0.65652208  0.78474619  0.96402169  1.0
  Zr  Zr150  1  0.98985542  0.11807952  0.96402169  1.0
  Zr  Zr151  1  0.98985542  0.45141285  0.96402169  1.0
  Zr  Zr152  1  0.98985542  0.78474619  0.96402169  1.0
  Zr  Zr153  1  0.07318875  0.22224619  0.90152169  1.0
  Zr  Zr154  1  0.07318875  0.55557952  0.90152169  1.0
  Zr  Zr155  1  0.07318875  0.88891285  0.90152169  1.0
  Zr  Zr156  1  0.40652208  0.22224619  0.90152169  1.0
  Zr  Zr157  1  0.40652208  0.55557952  0.90152169  1.0
  Zr  Zr158  1  0.40652208  0.88891285  0.90152169  1.0
  Zr  Zr159  1  0.73985542  0.22224619  0.90152169  1.0
  Zr  Zr160  1  0.73985542  0.55557952  0.90152169  1.0
  Zr  Zr161  1  0.73985542  0.88891285  0.90152169  1.0
  Zr  Zr162  1  0.07702892  0.05269940  0.89864156  1.0
  Zr  Zr163  1  0.07702892  0.38603273  0.89864156  1.0
  Zr  Zr164  1  0.07702892  0.71936606  0.89864156  1.0
  Zr  Zr165  1  0.41036225  0.05269940  0.89864156  1.0
  Zr  Zr166  1  0.41036225  0.38603273  0.89864156  1.0
  Zr  Zr167  1  0.41036225  0.71936606  0.89864156  1.0
  Zr  Zr168  1  0.74369558  0.05269940  0.89864156  1.0
  Zr  Zr169  1  0.74369558  0.38603273  0.89864156  1.0
  Zr  Zr170  1  0.74369558  0.71936606  0.89864156  1.0
  Zr  Zr171  1  0.32702892  0.28186606  0.96114156  1.0
  Zr  Zr172  1  0.32702892  0.61519940  0.96114156  1.0
  Zr  Zr173  1  0.32702892  0.94853273  0.96114156  1.0
  Zr  Zr174  1  0.66036225  0.28186606  0.96114156  1.0
  Zr  Zr175  1  0.66036225  0.61519940  0.96114156  1.0
  Zr  Zr176  1  0.66036225  0.94853273  0.96114156  1.0
  Zr  Zr177  1  0.99369558  0.28186606  0.96114156  1.0
  Zr  Zr178  1  0.99369558  0.61519940  0.96114156  1.0
  Zr  Zr179  1  0.99369558  0.94853273  0.96114156  1.0
  Zr  Zr180  1  0.29605100  0.04057058  0.94078825  1.0
  Zr  Zr181  1  0.29605100  0.37390392  0.94078825  1.0
  Zr  Zr182  1  0.29605100  0.70723725  0.94078825  1.0
  Zr  Zr183  1  0.62938433  0.04057058  0.94078825  1.0
  Zr  Zr184  1  0.62938433  0.37390392  0.94078825  1.0
  Zr  Zr185  1  0.62938433  0.70723725  0.94078825  1.0
  Zr  Zr186  1  0.96271767  0.04057058  0.94078825  1.0
  Zr  Zr187  1  0.96271767  0.37390392  0.94078825  1.0
  Zr  Zr188  1  0.96271767  0.70723725  0.94078825  1.0
  Zr  Zr189  1  0.04605100  0.14473725  0.87828825  1.0
  Zr  Zr190  1  0.04605100  0.47807058  0.87828825  1.0
  Zr  Zr191  1  0.04605100  0.81140392  0.87828825  1.0
  Zr  Zr192  1  0.37938433  0.14473725  0.87828825  1.0
  Zr  Zr193  1  0.37938433  0.47807058  0.87828825  1.0
  Zr  Zr194  1  0.37938433  0.81140392  0.87828825  1.0
  Zr  Zr195  1  0.71271767  0.14473725  0.87828825  1.0
  Zr  Zr196  1  0.71271767  0.47807058  0.87828825  1.0
  Zr  Zr197  1  0.71271767  0.81140392  0.87828825  1.0
  Zr  Zr198  1  0.17681125  0.09025381  0.91097831  1.0
  Zr  Zr199  1  0.17681125  0.42358715  0.91097831  1.0
  Zr  Zr200  1  0.17681125  0.75692048  0.91097831  1.0
  Zr  Zr201  1  0.51014458  0.09025381  0.91097831  1.0
  Zr  Zr202  1  0.51014458  0.42358715  0.91097831  1.0
  Zr  Zr203  1  0.51014458  0.75692048  0.91097831  1.0
  Zr  Zr204  1  0.84347792  0.09025381  0.91097831  1.0
  Zr  Zr205  1  0.84347792  0.42358715  0.91097831  1.0
  Zr  Zr206  1  0.84347792  0.75692048  0.91097831  1.0
  Zr  Zr207  1  0.09347792  0.31942048  0.97347831  1.0
  Zr  Zr208  1  0.09347792  0.65275381  0.97347831  1.0
  Zr  Zr209  1  0.09347792  0.98608715  0.97347831  1.0
  Zr  Zr210  1  0.42681125  0.31942048  0.97347831  1.0
  Zr  Zr211  1  0.42681125  0.65275381  0.97347831  1.0
  Zr  Zr212  1  0.42681125  0.98608715  0.97347831  1.0
  Zr  Zr213  1  0.76014458  0.31942048  0.97347831  1.0
  Zr  Zr214  1  0.76014458  0.65275381  0.97347831  1.0
  Zr  Zr215  1  0.76014458  0.98608715  0.97347831  1.0
  Zr  Zr216  1  0.25630442  0.03063394  0.85135844  1.0
  Zr  Zr217  1  0.25630442  0.36396727  0.85135844  1.0
  Zr  Zr218  1  0.25630442  0.69730060  0.85135844  1.0
  Zr  Zr219  1  0.58963775  0.03063394  0.85135844  1.0
  Zr  Zr220  1  0.58963775  0.36396727  0.85135844  1.0
  Zr  Zr221  1  0.58963775  0.69730060  0.85135844  1.0
  Zr  Zr222  1  0.92297108  0.03063394  0.85135844  1.0
  Zr  Zr223  1  0.92297108  0.36396727  0.85135844  1.0
  Zr  Zr224  1  0.92297108  0.69730060  0.85135844  1.0
  Zr  Zr225  1  0.00630442  0.13480060  0.78885844  1.0
  Zr  Zr226  1  0.00630442  0.46813394  0.78885844  1.0
  Zr  Zr227  1  0.00630442  0.80146727  0.78885844  1.0
  Zr  Zr228  1  0.33963775  0.13480060  0.78885844  1.0
  Zr  Zr229  1  0.33963775  0.46813394  0.78885844  1.0
  Zr  Zr230  1  0.33963775  0.80146727  0.78885844  1.0
  Zr  Zr231  1  0.67297108  0.13480060  0.78885844  1.0
  Zr  Zr232  1  0.67297108  0.46813394  0.78885844  1.0
  Zr  Zr233  1  0.67297108  0.80146727  0.78885844  1.0
  Zr  Zr234  1  0.03728233  0.04276275  0.80921175  1.0
  Zr  Zr235  1  0.03728233  0.37609608  0.80921175  1.0
  Zr  Zr236  1  0.03728233  0.70942942  0.80921175  1.0
  Zr  Zr237  1  0.37061567  0.04276275  0.80921175  1.0
  Zr  Zr238  1  0.37061567  0.37609608  0.80921175  1.0
  Zr  Zr239  1  0.37061567  0.70942942  0.80921175  1.0
  Zr  Zr240  1  0.70394900  0.04276275  0.80921175  1.0
  Zr  Zr241  1  0.70394900  0.37609608  0.80921175  1.0
  Zr  Zr242  1  0.70394900  0.70942942  0.80921175  1.0
  Zr  Zr243  1  0.28728233  0.27192942  0.87171175  1.0
  Zr  Zr244  1  0.28728233  0.60526275  0.87171175  1.0
  Zr  Zr245  1  0.28728233  0.93859608  0.87171175  1.0
  Zr  Zr246  1  0.62061567  0.27192942  0.87171175  1.0
  Zr  Zr247  1  0.62061567  0.60526275  0.87171175  1.0
  Zr  Zr248  1  0.62061567  0.93859608  0.87171175  1.0
  Zr  Zr249  1  0.95394900  0.27192942  0.87171175  1.0
  Zr  Zr250  1  0.95394900  0.60526275  0.87171175  1.0
  Zr  Zr251  1  0.95394900  0.93859608  0.87171175  1.0
  Zr  Zr252  1  0.15652208  0.32641285  0.83902169  1.0
  Zr  Zr253  1  0.15652208  0.65974619  0.83902169  1.0
  Zr  Zr254  1  0.15652208  0.99307952  0.83902169  1.0
  Zr  Zr255  1  0.48985542  0.32641285  0.83902169  1.0
  Zr  Zr256  1  0.48985542  0.65974619  0.83902169  1.0
  Zr  Zr257  1  0.48985542  0.99307952  0.83902169  1.0
  Zr  Zr258  1  0.82318875  0.32641285  0.83902169  1.0
  Zr  Zr259  1  0.82318875  0.65974619  0.83902169  1.0
  Zr  Zr260  1  0.82318875  0.99307952  0.83902169  1.0
  Zr  Zr261  1  0.23985542  0.09724619  0.77652169  1.0
  Zr  Zr262  1  0.23985542  0.43057952  0.77652169  1.0
  Zr  Zr263  1  0.23985542  0.76391285  0.77652169  1.0
  Zr  Zr264  1  0.57318875  0.09724619  0.77652169  1.0
  Zr  Zr265  1  0.57318875  0.43057952  0.77652169  1.0
  Zr  Zr266  1  0.57318875  0.76391285  0.77652169  1.0
  Zr  Zr267  1  0.90652208  0.09724619  0.77652169  1.0
  Zr  Zr268  1  0.90652208  0.43057952  0.77652169  1.0
  Zr  Zr269  1  0.90652208  0.76391285  0.77652169  1.0
  Zr  Zr270  1  0.24369558  0.26103273  0.77364156  1.0
  Zr  Zr271  1  0.24369558  0.59436606  0.77364156  1.0
  Zr  Zr272  1  0.24369558  0.92769940  0.77364156  1.0
  Zr  Zr273  1  0.57702892  0.26103273  0.77364156  1.0
  Zr  Zr274  1  0.57702892  0.59436606  0.77364156  1.0
  Zr  Zr275  1  0.57702892  0.92769940  0.77364156  1.0
  Zr  Zr276  1  0.91036225  0.26103273  0.77364156  1.0
  Zr  Zr277  1  0.91036225  0.59436606  0.77364156  1.0
  Zr  Zr278  1  0.91036225  0.92769940  0.77364156  1.0
  Zr  Zr279  1  0.16036225  0.15686606  0.83614156  1.0
  Zr  Zr280  1  0.16036225  0.49019940  0.83614156  1.0
  Zr  Zr281  1  0.16036225  0.82353273  0.83614156  1.0
  Zr  Zr282  1  0.49369558  0.15686606  0.83614156  1.0
  Zr  Zr283  1  0.49369558  0.49019940  0.83614156  1.0
  Zr  Zr284  1  0.49369558  0.82353273  0.83614156  1.0
  Zr  Zr285  1  0.82702892  0.15686606  0.83614156  1.0
  Zr  Zr286  1  0.82702892  0.49019940  0.83614156  1.0
  Zr  Zr287  1  0.82702892  0.82353273  0.83614156  1.0
  Zr  Zr288  1  0.12938433  0.24890392  0.81578825  1.0
  Zr  Zr289  1  0.12938433  0.58223725  0.81578825  1.0
  Zr  Zr290  1  0.12938433  0.91557058  0.81578825  1.0
  Zr  Zr291  1  0.46271767  0.24890392  0.81578825  1.0
  Zr  Zr292  1  0.46271767  0.58223725  0.81578825  1.0
  Zr  Zr293  1  0.46271767  0.91557058  0.81578825  1.0
  Zr  Zr294  1  0.79605100  0.24890392  0.81578825  1.0
  Zr  Zr295  1  0.79605100  0.58223725  0.81578825  1.0
  Zr  Zr296  1  0.79605100  0.91557058  0.81578825  1.0
  Zr  Zr297  1  0.21271767  0.01973725  0.75328825  1.0
  Zr  Zr298  1  0.21271767  0.35307058  0.75328825  1.0
  Zr  Zr299  1  0.21271767  0.68640392  0.75328825  1.0
  Zr  Zr300  1  0.54605100  0.01973725  0.75328825  1.0
  Zr  Zr301  1  0.54605100  0.35307058  0.75328825  1.0
  Zr  Zr302  1  0.54605100  0.68640392  0.75328825  1.0
  Zr  Zr303  1  0.87938433  0.01973725  0.75328825  1.0
  Zr  Zr304  1  0.87938433  0.35307058  0.75328825  1.0
  Zr  Zr305  1  0.87938433  0.68640392  0.75328825  1.0
  Zr  Zr306  1  0.01014458  0.29858715  0.78597831  1.0
  Zr  Zr307  1  0.01014458  0.63192048  0.78597831  1.0
  Zr  Zr308  1  0.01014458  0.96525381  0.78597831  1.0
  Zr  Zr309  1  0.34347792  0.29858715  0.78597831  1.0
  Zr  Zr310  1  0.34347792  0.63192048  0.78597831  1.0
  Zr  Zr311  1  0.34347792  0.96525381  0.78597831  1.0
  Zr  Zr312  1  0.67681125  0.29858715  0.78597831  1.0
  Zr  Zr313  1  0.67681125  0.63192048  0.78597831  1.0
  Zr  Zr314  1  0.67681125  0.96525381  0.78597831  1.0
  Zr  Zr315  1  0.26014458  0.19442048  0.84847831  1.0
  Zr  Zr316  1  0.26014458  0.52775381  0.84847831  1.0
  Zr  Zr317  1  0.26014458  0.86108715  0.84847831  1.0
  Zr  Zr318  1  0.59347792  0.19442048  0.84847831  1.0
  Zr  Zr319  1  0.59347792  0.52775381  0.84847831  1.0
  Zr  Zr320  1  0.59347792  0.86108715  0.84847831  1.0
  Zr  Zr321  1  0.92681125  0.19442048  0.84847831  1.0
  Zr  Zr322  1  0.92681125  0.52775381  0.84847831  1.0
  Zr  Zr323  1  0.92681125  0.86108715  0.84847831  1.0
  Zr  Zr324  1  0.08963775  0.23896727  0.72635844  1.0
  Zr  Zr325  1  0.08963775  0.57230060  0.72635844  1.0
  Zr  Zr326  1  0.08963775  0.90563394  0.72635844  1.0
  Zr  Zr327  1  0.42297108  0.23896727  0.72635844  1.0
  Zr  Zr328  1  0.42297108  0.57230060  0.72635844  1.0
  Zr  Zr329  1  0.42297108  0.90563394  0.72635844  1.0
  Zr  Zr330  1  0.75630442  0.23896727  0.72635844  1.0
  Zr  Zr331  1  0.75630442  0.57230060  0.72635844  1.0
  Zr  Zr332  1  0.75630442  0.90563394  0.72635844  1.0
  Zr  Zr333  1  0.17297108  0.00980060  0.66385844  1.0
  Zr  Zr334  1  0.17297108  0.34313394  0.66385844  1.0
  Zr  Zr335  1  0.17297108  0.67646727  0.66385844  1.0
  Zr  Zr336  1  0.50630442  0.00980060  0.66385844  1.0
  Zr  Zr337  1  0.50630442  0.34313394  0.66385844  1.0
  Zr  Zr338  1  0.50630442  0.67646727  0.66385844  1.0
  Zr  Zr339  1  0.83963775  0.00980060  0.66385844  1.0
  Zr  Zr340  1  0.83963775  0.34313394  0.66385844  1.0
  Zr  Zr341  1  0.83963775  0.67646727  0.66385844  1.0
  Zr  Zr342  1  0.20394900  0.25109608  0.68421175  1.0
  Zr  Zr343  1  0.20394900  0.58442942  0.68421175  1.0
  Zr  Zr344  1  0.20394900  0.91776275  0.68421175  1.0
  Zr  Zr345  1  0.53728233  0.25109608  0.68421175  1.0
  Zr  Zr346  1  0.53728233  0.58442942  0.68421175  1.0
  Zr  Zr347  1  0.53728233  0.91776275  0.68421175  1.0
  Zr  Zr348  1  0.87061567  0.25109608  0.68421175  1.0
  Zr  Zr349  1  0.87061567  0.58442942  0.68421175  1.0
  Zr  Zr350  1  0.87061567  0.91776275  0.68421175  1.0
  Zr  Zr351  1  0.12061567  0.14692942  0.74671175  1.0
  Zr  Zr352  1  0.12061567  0.48026275  0.74671175  1.0
  Zr  Zr353  1  0.12061567  0.81359608  0.74671175  1.0
  Zr  Zr354  1  0.45394900  0.14692942  0.74671175  1.0
  Zr  Zr355  1  0.45394900  0.48026275  0.74671175  1.0
  Zr  Zr356  1  0.45394900  0.81359608  0.74671175  1.0
  Zr  Zr357  1  0.78728233  0.14692942  0.74671175  1.0
  Zr  Zr358  1  0.78728233  0.48026275  0.74671175  1.0
  Zr  Zr359  1  0.78728233  0.81359608  0.74671175  1.0
  Zr  Zr360  1  0.32318875  0.20141285  0.71402169  1.0
  Zr  Zr361  1  0.32318875  0.53474619  0.71402169  1.0
  Zr  Zr362  1  0.32318875  0.86807952  0.71402169  1.0
  Zr  Zr363  1  0.65652208  0.20141285  0.71402169  1.0
  Zr  Zr364  1  0.65652208  0.53474619  0.71402169  1.0
  Zr  Zr365  1  0.65652208  0.86807952  0.71402169  1.0
  Zr  Zr366  1  0.98985542  0.20141285  0.71402169  1.0
  Zr  Zr367  1  0.98985542  0.53474619  0.71402169  1.0
  Zr  Zr368  1  0.98985542  0.86807952  0.71402169  1.0
  Zr  Zr369  1  0.07318875  0.30557952  0.65152169  1.0
  Zr  Zr370  1  0.07318875  0.63891285  0.65152169  1.0
  Zr  Zr371  1  0.07318875  0.97224619  0.65152169  1.0
  Zr  Zr372  1  0.40652208  0.30557952  0.65152169  1.0
  Zr  Zr373  1  0.40652208  0.63891285  0.65152169  1.0
  Zr  Zr374  1  0.40652208  0.97224619  0.65152169  1.0
  Zr  Zr375  1  0.73985542  0.30557952  0.65152169  1.0
  Zr  Zr376  1  0.73985542  0.63891285  0.65152169  1.0
  Zr  Zr377  1  0.73985542  0.97224619  0.65152169  1.0
  Zr  Zr378  1  0.07702892  0.13603273  0.64864156  1.0
  Zr  Zr379  1  0.07702892  0.46936606  0.64864156  1.0
  Zr  Zr380  1  0.07702892  0.80269940  0.64864156  1.0
  Zr  Zr381  1  0.41036225  0.13603273  0.64864156  1.0
  Zr  Zr382  1  0.41036225  0.46936606  0.64864156  1.0
  Zr  Zr383  1  0.41036225  0.80269940  0.64864156  1.0
  Zr  Zr384  1  0.74369558  0.13603273  0.64864156  1.0
  Zr  Zr385  1  0.74369558  0.46936606  0.64864156  1.0
  Zr  Zr386  1  0.74369558  0.80269940  0.64864156  1.0
  Zr  Zr387  1  0.32702892  0.03186606  0.71114156  1.0
  Zr  Zr388  1  0.32702892  0.36519940  0.71114156  1.0
  Zr  Zr389  1  0.32702892  0.69853273  0.71114156  1.0
  Zr  Zr390  1  0.66036225  0.03186606  0.71114156  1.0
  Zr  Zr391  1  0.66036225  0.36519940  0.71114156  1.0
  Zr  Zr392  1  0.66036225  0.69853273  0.71114156  1.0
  Zr  Zr393  1  0.99369558  0.03186606  0.71114156  1.0
  Zr  Zr394  1  0.99369558  0.36519940  0.71114156  1.0
  Zr  Zr395  1  0.99369558  0.69853273  0.71114156  1.0
  Zr  Zr396  1  0.29605100  0.12390392  0.69078825  1.0
  Zr  Zr397  1  0.29605100  0.45723725  0.69078825  1.0
  Zr  Zr398  1  0.29605100  0.79057058  0.69078825  1.0
  Zr  Zr399  1  0.62938433  0.12390392  0.69078825  1.0
  Zr  Zr400  1  0.62938433  0.45723725  0.69078825  1.0
  Zr  Zr401  1  0.62938433  0.79057058  0.69078825  1.0
  Zr  Zr402  1  0.96271767  0.12390392  0.69078825  1.0
  Zr  Zr403  1  0.96271767  0.45723725  0.69078825  1.0
  Zr  Zr404  1  0.96271767  0.79057058  0.69078825  1.0
  Zr  Zr405  1  0.04605100  0.22807058  0.62828825  1.0
  Zr  Zr406  1  0.04605100  0.56140392  0.62828825  1.0
  Zr  Zr407  1  0.04605100  0.89473725  0.62828825  1.0
  Zr  Zr408  1  0.37938433  0.22807058  0.62828825  1.0
  Zr  Zr409  1  0.37938433  0.56140392  0.62828825  1.0
  Zr  Zr410  1  0.37938433  0.89473725  0.62828825  1.0
  Zr  Zr411  1  0.71271767  0.22807058  0.62828825  1.0
  Zr  Zr412  1  0.71271767  0.56140392  0.62828825  1.0
  Zr  Zr413  1  0.71271767  0.89473725  0.62828825  1.0
  Zr  Zr414  1  0.17681125  0.17358715  0.66097831  1.0
  Zr  Zr415  1  0.17681125  0.50692048  0.66097831  1.0
  Zr  Zr416  1  0.17681125  0.84025381  0.66097831  1.0
  Zr  Zr417  1  0.51014458  0.17358715  0.66097831  1.0
  Zr  Zr418  1  0.51014458  0.50692048  0.66097831  1.0
  Zr  Zr419  1  0.51014458  0.84025381  0.66097831  1.0
  Zr  Zr420  1  0.84347792  0.17358715  0.66097831  1.0
  Zr  Zr421  1  0.84347792  0.50692048  0.66097831  1.0
  Zr  Zr422  1  0.84347792  0.84025381  0.66097831  1.0
  Zr  Zr423  1  0.09347792  0.06942048  0.72347831  1.0
  Zr  Zr424  1  0.09347792  0.40275381  0.72347831  1.0
  Zr  Zr425  1  0.09347792  0.73608715  0.72347831  1.0
  Zr  Zr426  1  0.42681125  0.06942048  0.72347831  1.0
  Zr  Zr427  1  0.42681125  0.40275381  0.72347831  1.0
  Zr  Zr428  1  0.42681125  0.73608715  0.72347831  1.0
  Zr  Zr429  1  0.76014458  0.06942048  0.72347831  1.0
  Zr  Zr430  1  0.76014458  0.40275381  0.72347831  1.0
  Zr  Zr431  1  0.76014458  0.73608715  0.72347831  1.0
