# generated using pymatgen
data_Zr6Ni23
_symmetry_space_group_name_H-M   'P 1'
_cell_length_a   24.24041667
_cell_length_b   24.24041667
_cell_length_c   40.40069445
_cell_angle_alpha   60.00000000
_cell_angle_beta   60.00000000
_cell_angle_gamma   90.00000000
_symmetry_Int_Tables_number   1
_chemical_formula_structural   Zr6Ni23
_chemical_formula_sum   'Zr108 Ni414'
_cell_volume   16786.26186486
_cell_formula_units_Z   18
loop_
 _symmetry_equiv_pos_site_id
 _symmetry_equiv_pos_as_xyz
  1  'x, y, z'
loop_
 _atom_site_type_symbol
 _atom_site_label
 _atom_site_symmetry_multiplicity
 _atom_site_fract_x
 _atom_site_fract_y
 _atom_site_fract_z
 _atom_site_occupancy
  Zr  Zr0  1  0.23762233  0.23762233  0.09086167  1.0
  Zr  Zr1  1  0.23762233  0.57095567  0.09086167  1.0
  Zr  Zr2  1  0.23762233  0.90428900  0.09086167  1.0
  Zr  Zr3  1  0.57095567  0.23762233  0.09086167  1.0
  Zr  Zr4  1  0.57095567  0.57095567  0.09086167  1.0
  Zr  Zr5  1  0.57095567  0.90428900  0.09086167  1.0
  Zr  Zr6  1  0.90428900  0.23762233  0.09086167  1.0
  Zr  Zr7  1  0.90428900  0.57095567  0.09086167  1.0
  Zr  Zr8  1  0.90428900  0.90428900  0.09086167  1.0
  Zr  Zr9  1  0.23762233  0.09571100  0.17600847  1.0
  Zr  Zr10  1  0.23762233  0.42904433  0.17600847  1.0
  Zr  Zr11  1  0.23762233  0.76237767  0.17600847  1.0
  Zr  Zr12  1  0.57095567  0.09571100  0.17600847  1.0
  Zr  Zr13  1  0.57095567  0.42904433  0.17600847  1.0
  Zr  Zr14  1  0.57095567  0.76237767  0.17600847  1.0
  Zr  Zr15  1  0.90428900  0.09571100  0.17600847  1.0
  Zr  Zr16  1  0.90428900  0.42904433  0.17600847  1.0
  Zr  Zr17  1  0.90428900  0.76237767  0.17600847  1.0
  Zr  Zr18  1  0.23762233  0.23762233  0.17600847  1.0
  Zr  Zr19  1  0.23762233  0.57095567  0.17600847  1.0
  Zr  Zr20  1  0.23762233  0.90428900  0.17600847  1.0
  Zr  Zr21  1  0.57095567  0.23762233  0.17600847  1.0
  Zr  Zr22  1  0.57095567  0.57095567  0.17600847  1.0
  Zr  Zr23  1  0.57095567  0.90428900  0.17600847  1.0
  Zr  Zr24  1  0.90428900  0.23762233  0.17600847  1.0
  Zr  Zr25  1  0.90428900  0.57095567  0.17600847  1.0
  Zr  Zr26  1  0.90428900  0.90428900  0.17600847  1.0
  Zr  Zr27  1  0.09571100  0.09571100  0.06115527  1.0
  Zr  Zr28  1  0.09571100  0.42904433  0.06115527  1.0
  Zr  Zr29  1  0.09571100  0.76237767  0.06115527  1.0
  Zr  Zr30  1  0.42904433  0.09571100  0.06115527  1.0
  Zr  Zr31  1  0.42904433  0.42904433  0.06115527  1.0
  Zr  Zr32  1  0.42904433  0.76237767  0.06115527  1.0
  Zr  Zr33  1  0.76237767  0.09571100  0.06115527  1.0
  Zr  Zr34  1  0.76237767  0.42904433  0.06115527  1.0
  Zr  Zr35  1  0.76237767  0.76237767  0.06115527  1.0
  Zr  Zr36  1  0.09571100  0.23762233  0.17600847  1.0
  Zr  Zr37  1  0.09571100  0.57095567  0.17600847  1.0
  Zr  Zr38  1  0.09571100  0.90428900  0.17600847  1.0
  Zr  Zr39  1  0.42904433  0.23762233  0.17600847  1.0
  Zr  Zr40  1  0.42904433  0.57095567  0.17600847  1.0
  Zr  Zr41  1  0.42904433  0.90428900  0.17600847  1.0
  Zr  Zr42  1  0.76237767  0.23762233  0.17600847  1.0
  Zr  Zr43  1  0.76237767  0.57095567  0.17600847  1.0
  Zr  Zr44  1  0.76237767  0.90428900  0.17600847  1.0
  Zr  Zr45  1  0.09571100  0.09571100  0.17600847  1.0
  Zr  Zr46  1  0.09571100  0.42904433  0.17600847  1.0
  Zr  Zr47  1  0.09571100  0.76237767  0.17600847  1.0
  Zr  Zr48  1  0.42904433  0.09571100  0.17600847  1.0
  Zr  Zr49  1  0.42904433  0.42904433  0.17600847  1.0
  Zr  Zr50  1  0.42904433  0.76237767  0.17600847  1.0
  Zr  Zr51  1  0.76237767  0.09571100  0.17600847  1.0
  Zr  Zr52  1  0.76237767  0.42904433  0.17600847  1.0
  Zr  Zr53  1  0.76237767  0.76237767  0.17600847  1.0
  Ni  Ni54  1  0.00000000  0.00000000  0.17600847  1.0
  Ni  Ni55  1  0.00000000  0.33333333  0.17600847  1.0
  Ni  Ni56  1  0.00000000  0.66666667  0.17600847  1.0
  Ni  Ni57  1  0.33333333  0.00000000  0.17600847  1.0
  Ni  Ni58  1  0.33333333  0.33333333  0.17600847  1.0
  Ni  Ni59  1  0.33333333  0.66666667  0.17600847  1.0
  Ni  Ni60  1  0.66666667  0.00000000  0.17600847  1.0
  Ni  Ni61  1  0.66666667  0.33333333  0.17600847  1.0
  Ni  Ni62  1  0.66666667  0.66666667  0.17600847  1.0
  Ni  Ni63  1  0.16666667  0.00000000  0.17600847  1.0
  Ni  Ni64  1  0.16666667  0.33333333  0.17600847  1.0
  Ni  Ni65  1  0.16666667  0.66666667  0.17600847  1.0
  Ni  Ni66  1  0.50000000  0.00000000  0.17600847  1.0
  Ni  Ni67  1  0.50000000  0.33333333  0.17600847  1.0
  Ni  Ni68  1  0.50000000  0.66666667  0.17600847  1.0
  Ni  Ni69  1  0.83333333  0.00000000  0.17600847  1.0
  Ni  Ni70  1  0.83333333  0.33333333  0.17600847  1.0
  Ni  Ni71  1  0.83333333  0.66666667  0.17600847  1.0
  Ni  Ni72  1  0.16666667  0.16666667  0.07600847  1.0
  Ni  Ni73  1  0.16666667  0.50000000  0.07600847  1.0
  Ni  Ni74  1  0.16666667  0.83333333  0.07600847  1.0
  Ni  Ni75  1  0.50000000  0.16666667  0.07600847  1.0
  Ni  Ni76  1  0.50000000  0.50000000  0.07600847  1.0
  Ni  Ni77  1  0.50000000  0.83333333  0.07600847  1.0
  Ni  Ni78  1  0.83333333  0.16666667  0.07600847  1.0
  Ni  Ni79  1  0.83333333  0.50000000  0.07600847  1.0
  Ni  Ni80  1  0.83333333  0.83333333  0.07600847  1.0
  Ni  Ni81  1  0.16666667  0.00000000  0.07600847  1.0
  Ni  Ni82  1  0.16666667  0.33333333  0.07600847  1.0
  Ni  Ni83  1  0.16666667  0.66666667  0.07600847  1.0
  Ni  Ni84  1  0.50000000  0.00000000  0.07600847  1.0
  Ni  Ni85  1  0.50000000  0.33333333  0.07600847  1.0
  Ni  Ni86  1  0.50000000  0.66666667  0.07600847  1.0
  Ni  Ni87  1  0.83333333  0.00000000  0.07600847  1.0
  Ni  Ni88  1  0.83333333  0.33333333  0.07600847  1.0
  Ni  Ni89  1  0.83333333  0.66666667  0.07600847  1.0
  Ni  Ni90  1  0.00000000  0.16666667  0.17600847  1.0
  Ni  Ni91  1  0.00000000  0.50000000  0.17600847  1.0
  Ni  Ni92  1  0.00000000  0.83333333  0.17600847  1.0
  Ni  Ni93  1  0.33333333  0.16666667  0.17600847  1.0
  Ni  Ni94  1  0.33333333  0.50000000  0.17600847  1.0
  Ni  Ni95  1  0.33333333  0.83333333  0.17600847  1.0
  Ni  Ni96  1  0.66666667  0.16666667  0.17600847  1.0
  Ni  Ni97  1  0.66666667  0.50000000  0.17600847  1.0
  Ni  Ni98  1  0.66666667  0.83333333  0.17600847  1.0
  Ni  Ni99  1  0.00000000  0.00000000  0.07600847  1.0
  Ni  Ni100  1  0.00000000  0.33333333  0.07600847  1.0
  Ni  Ni101  1  0.00000000  0.66666667  0.07600847  1.0
  Ni  Ni102  1  0.33333333  0.00000000  0.07600847  1.0
  Ni  Ni103  1  0.33333333  0.33333333  0.07600847  1.0
  Ni  Ni104  1  0.33333333  0.66666667  0.07600847  1.0
  Ni  Ni105  1  0.66666667  0.00000000  0.07600847  1.0
  Ni  Ni106  1  0.66666667  0.33333333  0.07600847  1.0
  Ni  Ni107  1  0.66666667  0.66666667  0.07600847  1.0
  Ni  Ni108  1  0.00000000  0.16666667  0.07600847  1.0
  Ni  Ni109  1  0.00000000  0.50000000  0.07600847  1.0
  Ni  Ni110  1  0.00000000  0.83333333  0.07600847  1.0
  Ni  Ni111  1  0.33333333  0.16666667  0.07600847  1.0
  Ni  Ni112  1  0.33333333  0.50000000  0.07600847  1.0
  Ni  Ni113  1  0.33333333  0.83333333  0.07600847  1.0
  Ni  Ni114  1  0.66666667  0.16666667  0.07600847  1.0
  Ni  Ni115  1  0.66666667  0.50000000  0.07600847  1.0
  Ni  Ni116  1  0.66666667  0.83333333  0.07600847  1.0
  Ni  Ni117  1  0.21337567  0.29334744  0.02399153  1.0
  Ni  Ni118  1  0.21337567  0.62668078  0.02399153  1.0
  Ni  Ni119  1  0.21337567  0.96001411  0.02399153  1.0
  Ni  Ni120  1  0.54670900  0.29334744  0.02399153  1.0
  Ni  Ni121  1  0.54670900  0.62668078  0.02399153  1.0
  Ni  Ni122  1  0.54670900  0.96001411  0.02399153  1.0
  Ni  Ni123  1  0.88004233  0.29334744  0.02399153  1.0
  Ni  Ni124  1  0.88004233  0.62668078  0.02399153  1.0
  Ni  Ni125  1  0.88004233  0.96001411  0.02399153  1.0
  Ni  Ni126  1  0.03998589  0.29334744  0.12802540  1.0
  Ni  Ni127  1  0.03998589  0.62668078  0.12802540  1.0
  Ni  Ni128  1  0.03998589  0.96001411  0.12802540  1.0
  Ni  Ni129  1  0.37331922  0.29334744  0.12802540  1.0
  Ni  Ni130  1  0.37331922  0.62668078  0.12802540  1.0
  Ni  Ni131  1  0.37331922  0.96001411  0.12802540  1.0
  Ni  Ni132  1  0.70665256  0.29334744  0.12802540  1.0
  Ni  Ni133  1  0.70665256  0.62668078  0.12802540  1.0
  Ni  Ni134  1  0.70665256  0.96001411  0.12802540  1.0
  Ni  Ni135  1  0.03998589  0.11995767  0.12802540  1.0
  Ni  Ni136  1  0.03998589  0.45329100  0.12802540  1.0
  Ni  Ni137  1  0.03998589  0.78662433  0.12802540  1.0
  Ni  Ni138  1  0.37331922  0.11995767  0.12802540  1.0
  Ni  Ni139  1  0.37331922  0.45329100  0.12802540  1.0
  Ni  Ni140  1  0.37331922  0.78662433  0.12802540  1.0
  Ni  Ni141  1  0.70665256  0.11995767  0.12802540  1.0
  Ni  Ni142  1  0.70665256  0.45329100  0.12802540  1.0
  Ni  Ni143  1  0.70665256  0.78662433  0.12802540  1.0
  Ni  Ni144  1  0.03998589  0.29334744  0.02399153  1.0
  Ni  Ni145  1  0.03998589  0.62668078  0.02399153  1.0
  Ni  Ni146  1  0.03998589  0.96001411  0.02399153  1.0
  Ni  Ni147  1  0.37331922  0.29334744  0.02399153  1.0
  Ni  Ni148  1  0.37331922  0.62668078  0.02399153  1.0
  Ni  Ni149  1  0.37331922  0.96001411  0.02399154  1.0
  Ni  Ni150  1  0.70665256  0.29334744  0.02399153  1.0
  Ni  Ni151  1  0.70665256  0.62668078  0.02399154  1.0
  Ni  Ni152  1  0.70665256  0.96001411  0.02399153  1.0
  Ni  Ni153  1  0.11995767  0.03998589  0.12802540  1.0
  Ni  Ni154  1  0.11995767  0.37331922  0.12802540  1.0
  Ni  Ni155  1  0.11995767  0.70665256  0.12802540  1.0
  Ni  Ni156  1  0.45329100  0.03998589  0.12802540  1.0
  Ni  Ni157  1  0.45329100  0.37331922  0.12802540  1.0
  Ni  Ni158  1  0.45329100  0.70665256  0.12802540  1.0
  Ni  Ni159  1  0.78662433  0.03998589  0.12802540  1.0
  Ni  Ni160  1  0.78662433  0.37331922  0.12802540  1.0
  Ni  Ni161  1  0.78662433  0.70665256  0.12802540  1.0
  Ni  Ni162  1  0.29334744  0.03998589  0.02399153  1.0
  Ni  Ni163  1  0.29334744  0.37331922  0.02399153  1.0
  Ni  Ni164  1  0.29334744  0.70665256  0.02399153  1.0
  Ni  Ni165  1  0.62668078  0.03998589  0.02399153  1.0
  Ni  Ni166  1  0.62668078  0.37331922  0.02399153  1.0
  Ni  Ni167  1  0.62668078  0.70665256  0.02399153  1.0
  Ni  Ni168  1  0.96001411  0.03998589  0.02399153  1.0
  Ni  Ni169  1  0.96001411  0.37331922  0.02399153  1.0
  Ni  Ni170  1  0.96001411  0.70665256  0.02399153  1.0
  Ni  Ni171  1  0.29334744  0.21337567  0.02399153  1.0
  Ni  Ni172  1  0.29334744  0.54670900  0.02399153  1.0
  Ni  Ni173  1  0.29334744  0.88004233  0.02399153  1.0
  Ni  Ni174  1  0.62668078  0.21337567  0.02399153  1.0
  Ni  Ni175  1  0.62668078  0.54670900  0.02399153  1.0
  Ni  Ni176  1  0.62668078  0.88004233  0.02399153  1.0
  Ni  Ni177  1  0.96001411  0.21337567  0.02399153  1.0
  Ni  Ni178  1  0.96001411  0.54670900  0.02399153  1.0
  Ni  Ni179  1  0.96001411  0.88004233  0.02399153  1.0
  Ni  Ni180  1  0.29334744  0.03998589  0.12802540  1.0
  Ni  Ni181  1  0.29334744  0.37331922  0.12802540  1.0
  Ni  Ni182  1  0.29334744  0.70665256  0.12802540  1.0
  Ni  Ni183  1  0.62668078  0.03998589  0.12802540  1.0
  Ni  Ni184  1  0.62668078  0.37331922  0.12802540  1.0
  Ni  Ni185  1  0.62668078  0.70665256  0.12802540  1.0
  Ni  Ni186  1  0.96001411  0.03998589  0.12802540  1.0
  Ni  Ni187  1  0.96001411  0.37331922  0.12802540  1.0
  Ni  Ni188  1  0.96001411  0.70665256  0.12802540  1.0
  Ni  Ni189  1  0.00468967  0.22378544  0.10746594  1.0
  Ni  Ni190  1  0.00468967  0.55711878  0.10746593  1.0
  Ni  Ni191  1  0.00468967  0.89045211  0.10746594  1.0
  Ni  Ni192  1  0.33802300  0.22378544  0.10746594  1.0
  Ni  Ni193  1  0.33802300  0.55711878  0.10746593  1.0
  Ni  Ni194  1  0.33802300  0.89045211  0.10746593  1.0
  Ni  Ni195  1  0.67135633  0.22378544  0.10746594  1.0
  Ni  Ni196  1  0.67135633  0.55711878  0.10746593  1.0
  Ni  Ni197  1  0.67135633  0.89045211  0.10746593  1.0
  Ni  Ni198  1  0.10954789  0.22378544  0.04455100  1.0
  Ni  Ni199  1  0.10954789  0.55711878  0.04455100  1.0
  Ni  Ni200  1  0.10954789  0.89045211  0.04455100  1.0
  Ni  Ni201  1  0.44288122  0.22378544  0.04455100  1.0
  Ni  Ni202  1  0.44288122  0.55711878  0.04455100  1.0
  Ni  Ni203  1  0.44288122  0.89045211  0.04455100  1.0
  Ni  Ni204  1  0.77621456  0.22378544  0.04455100  1.0
  Ni  Ni205  1  0.77621456  0.55711878  0.04455100  1.0
  Ni  Ni206  1  0.77621456  0.89045211  0.04455100  1.0
  Ni  Ni207  1  0.10954789  0.32864367  0.04455100  1.0
  Ni  Ni208  1  0.10954789  0.66197700  0.04455100  1.0
  Ni  Ni209  1  0.10954789  0.99531033  0.04455100  1.0
  Ni  Ni210  1  0.44288122  0.32864367  0.04455100  1.0
  Ni  Ni211  1  0.44288122  0.66197700  0.04455100  1.0
  Ni  Ni212  1  0.44288122  0.99531033  0.04455100  1.0
  Ni  Ni213  1  0.77621456  0.32864367  0.04455100  1.0
  Ni  Ni214  1  0.77621456  0.66197700  0.04455100  1.0
  Ni  Ni215  1  0.77621456  0.99531033  0.04455100  1.0
  Ni  Ni216  1  0.10954789  0.22378544  0.10746594  1.0
  Ni  Ni217  1  0.10954789  0.55711878  0.10746593  1.0
  Ni  Ni218  1  0.10954789  0.89045211  0.10746594  1.0
  Ni  Ni219  1  0.44288122  0.22378544  0.10746593  1.0
  Ni  Ni220  1  0.44288122  0.55711878  0.10746594  1.0
  Ni  Ni221  1  0.44288122  0.89045211  0.10746594  1.0
  Ni  Ni222  1  0.77621456  0.22378544  0.10746594  1.0
  Ni  Ni223  1  0.77621456  0.55711878  0.10746593  1.0
  Ni  Ni224  1  0.77621456  0.89045211  0.10746593  1.0
  Ni  Ni225  1  0.32864367  0.10954789  0.04455100  1.0
  Ni  Ni226  1  0.32864367  0.44288122  0.04455100  1.0
  Ni  Ni227  1  0.32864367  0.77621456  0.04455100  1.0
  Ni  Ni228  1  0.66197700  0.10954789  0.04455100  1.0
  Ni  Ni229  1  0.66197700  0.44288122  0.04455100  1.0
  Ni  Ni230  1  0.66197700  0.77621456  0.04455100  1.0
  Ni  Ni231  1  0.99531033  0.10954789  0.04455100  1.0
  Ni  Ni232  1  0.99531033  0.44288122  0.04455100  1.0
  Ni  Ni233  1  0.99531033  0.77621456  0.04455100  1.0
  Ni  Ni234  1  0.22378544  0.10954789  0.10746593  1.0
  Ni  Ni235  1  0.22378544  0.44288122  0.10746593  1.0
  Ni  Ni236  1  0.22378544  0.77621456  0.10746593  1.0
  Ni  Ni237  1  0.55711878  0.10954789  0.10746593  1.0
  Ni  Ni238  1  0.55711878  0.44288122  0.10746593  1.0
  Ni  Ni239  1  0.55711878  0.77621456  0.10746593  1.0
  Ni  Ni240  1  0.89045211  0.10954789  0.10746593  1.0
  Ni  Ni241  1  0.89045211  0.44288122  0.10746593  1.0
  Ni  Ni242  1  0.89045211  0.77621456  0.10746593  1.0
  Ni  Ni243  1  0.22378544  0.00468967  0.10746593  1.0
  Ni  Ni244  1  0.22378544  0.33802300  0.10746593  1.0
  Ni  Ni245  1  0.22378544  0.67135633  0.10746593  1.0
  Ni  Ni246  1  0.55711878  0.00468967  0.10746593  1.0
  Ni  Ni247  1  0.55711878  0.33802300  0.10746593  1.0
  Ni  Ni248  1  0.55711878  0.67135633  0.10746593  1.0
  Ni  Ni249  1  0.89045211  0.00468967  0.10746593  1.0
  Ni  Ni250  1  0.89045211  0.33802300  0.10746593  1.0
  Ni  Ni251  1  0.89045211  0.67135633  0.10746593  1.0
  Ni  Ni252  1  0.22378544  0.10954789  0.04455100  1.0
  Ni  Ni253  1  0.22378544  0.44288122  0.04455100  1.0
  Ni  Ni254  1  0.22378544  0.77621456  0.04455100  1.0
  Ni  Ni255  1  0.55711878  0.10954789  0.04455100  1.0
  Ni  Ni256  1  0.55711878  0.44288122  0.04455100  1.0
  Ni  Ni257  1  0.55711878  0.77621456  0.04455100  1.0
  Ni  Ni258  1  0.89045211  0.10954789  0.04455100  1.0
  Ni  Ni259  1  0.89045211  0.44288122  0.04455100  1.0
  Ni  Ni260  1  0.89045211  0.77621456  0.04455100  1.0
  Zr  Zr261  1  0.23762233  0.23762233  0.29086167  1.0
  Zr  Zr262  1  0.23762233  0.57095567  0.29086167  1.0
  Zr  Zr263  1  0.23762233  0.90428900  0.29086167  1.0
  Zr  Zr264  1  0.57095567  0.23762233  0.29086167  1.0
  Zr  Zr265  1  0.57095567  0.57095567  0.29086167  1.0
  Zr  Zr266  1  0.57095567  0.90428900  0.29086167  1.0
  Zr  Zr267  1  0.90428900  0.23762233  0.29086167  1.0
  Zr  Zr268  1  0.90428900  0.57095567  0.29086167  1.0
  Zr  Zr269  1  0.90428900  0.90428900  0.29086167  1.0
  Zr  Zr270  1  0.23762233  0.09571100  0.37600847  1.0
  Zr  Zr271  1  0.23762233  0.42904433  0.37600847  1.0
  Zr  Zr272  1  0.23762233  0.76237767  0.37600847  1.0
  Zr  Zr273  1  0.57095567  0.09571100  0.37600847  1.0
  Zr  Zr274  1  0.57095567  0.42904433  0.37600847  1.0
  Zr  Zr275  1  0.57095567  0.76237767  0.37600847  1.0
  Zr  Zr276  1  0.90428900  0.09571100  0.37600847  1.0
  Zr  Zr277  1  0.90428900  0.42904433  0.37600847  1.0
  Zr  Zr278  1  0.90428900  0.76237767  0.37600847  1.0
  Zr  Zr279  1  0.23762233  0.23762233  0.37600847  1.0
  Zr  Zr280  1  0.23762233  0.57095567  0.37600847  1.0
  Zr  Zr281  1  0.23762233  0.90428900  0.37600847  1.0
  Zr  Zr282  1  0.57095567  0.23762233  0.37600847  1.0
  Zr  Zr283  1  0.57095567  0.57095567  0.37600847  1.0
  Zr  Zr284  1  0.57095567  0.90428900  0.37600847  1.0
  Zr  Zr285  1  0.90428900  0.23762233  0.37600847  1.0
  Zr  Zr286  1  0.90428900  0.57095567  0.37600847  1.0
  Zr  Zr287  1  0.90428900  0.90428900  0.37600847  1.0
  Zr  Zr288  1  0.09571100  0.09571100  0.26115527  1.0
  Zr  Zr289  1  0.09571100  0.42904433  0.26115527  1.0
  Zr  Zr290  1  0.09571100  0.76237767  0.26115527  1.0
  Zr  Zr291  1  0.42904433  0.09571100  0.26115527  1.0
  Zr  Zr292  1  0.42904433  0.42904433  0.26115527  1.0
  Zr  Zr293  1  0.42904433  0.76237767  0.26115527  1.0
  Zr  Zr294  1  0.76237767  0.09571100  0.26115527  1.0
  Zr  Zr295  1  0.76237767  0.42904433  0.26115527  1.0
  Zr  Zr296  1  0.76237767  0.76237767  0.26115527  1.0
  Zr  Zr297  1  0.09571100  0.23762233  0.37600847  1.0
  Zr  Zr298  1  0.09571100  0.57095567  0.37600847  1.0
  Zr  Zr299  1  0.09571100  0.90428900  0.37600847  1.0
  Zr  Zr300  1  0.42904433  0.23762233  0.37600847  1.0
  Zr  Zr301  1  0.42904433  0.57095567  0.37600847  1.0
  Zr  Zr302  1  0.42904433  0.90428900  0.37600847  1.0
  Zr  Zr303  1  0.76237767  0.23762233  0.37600847  1.0
  Zr  Zr304  1  0.76237767  0.57095567  0.37600847  1.0
  Zr  Zr305  1  0.76237767  0.90428900  0.37600847  1.0
  Zr  Zr306  1  0.09571100  0.09571100  0.37600847  1.0
  Zr  Zr307  1  0.09571100  0.42904433  0.37600847  1.0
  Zr  Zr308  1  0.09571100  0.76237767  0.37600847  1.0
  Zr  Zr309  1  0.42904433  0.09571100  0.37600847  1.0
  Zr  Zr310  1  0.42904433  0.42904433  0.37600847  1.0
  Zr  Zr311  1  0.42904433  0.76237767  0.37600847  1.0
  Zr  Zr312  1  0.76237767  0.09571100  0.37600847  1.0
  Zr  Zr313  1  0.76237767  0.42904433  0.37600847  1.0
  Zr  Zr314  1  0.76237767  0.76237767  0.37600847  1.0
  Ni  Ni315  1  0.00000000  0.00000000  0.37600847  1.0
  Ni  Ni316  1  0.00000000  0.33333333  0.37600847  1.0
  Ni  Ni317  1  0.00000000  0.66666667  0.37600847  1.0
  Ni  Ni318  1  0.33333333  0.00000000  0.37600847  1.0
  Ni  Ni319  1  0.33333333  0.33333333  0.37600847  1.0
  Ni  Ni320  1  0.33333333  0.66666667  0.37600847  1.0
  Ni  Ni321  1  0.66666667  0.00000000  0.37600847  1.0
  Ni  Ni322  1  0.66666667  0.33333333  0.37600847  1.0
  Ni  Ni323  1  0.66666667  0.66666667  0.37600847  1.0
  Ni  Ni324  1  0.16666667  0.00000000  0.37600847  1.0
  Ni  Ni325  1  0.16666667  0.33333333  0.37600847  1.0
  Ni  Ni326  1  0.16666667  0.66666667  0.37600847  1.0
  Ni  Ni327  1  0.50000000  0.00000000  0.37600847  1.0
  Ni  Ni328  1  0.50000000  0.33333333  0.37600847  1.0
  Ni  Ni329  1  0.50000000  0.66666667  0.37600847  1.0
  Ni  Ni330  1  0.83333333  0.00000000  0.37600847  1.0
  Ni  Ni331  1  0.83333333  0.33333333  0.37600847  1.0
  Ni  Ni332  1  0.83333333  0.66666667  0.37600847  1.0
  Ni  Ni333  1  0.16666667  0.16666667  0.27600847  1.0
  Ni  Ni334  1  0.16666667  0.50000000  0.27600847  1.0
  Ni  Ni335  1  0.16666667  0.83333333  0.27600847  1.0
  Ni  Ni336  1  0.50000000  0.16666667  0.27600847  1.0
  Ni  Ni337  1  0.50000000  0.50000000  0.27600847  1.0
  Ni  Ni338  1  0.50000000  0.83333333  0.27600847  1.0
  Ni  Ni339  1  0.83333333  0.16666667  0.27600847  1.0
  Ni  Ni340  1  0.83333333  0.50000000  0.27600847  1.0
  Ni  Ni341  1  0.83333333  0.83333333  0.27600847  1.0
  Ni  Ni342  1  0.16666667  0.00000000  0.27600847  1.0
  Ni  Ni343  1  0.16666667  0.33333333  0.27600847  1.0
  Ni  Ni344  1  0.16666667  0.66666667  0.27600847  1.0
  Ni  Ni345  1  0.50000000  0.00000000  0.27600847  1.0
  Ni  Ni346  1  0.50000000  0.33333333  0.27600847  1.0
  Ni  Ni347  1  0.50000000  0.66666667  0.27600847  1.0
  Ni  Ni348  1  0.83333333  0.00000000  0.27600847  1.0
  Ni  Ni349  1  0.83333333  0.33333333  0.27600847  1.0
  Ni  Ni350  1  0.83333333  0.66666667  0.27600847  1.0
  Ni  Ni351  1  0.00000000  0.16666667  0.37600847  1.0
  Ni  Ni352  1  0.00000000  0.50000000  0.37600847  1.0
  Ni  Ni353  1  0.00000000  0.83333333  0.37600847  1.0
  Ni  Ni354  1  0.33333333  0.16666667  0.37600847  1.0
  Ni  Ni355  1  0.33333333  0.50000000  0.37600847  1.0
  Ni  Ni356  1  0.33333333  0.83333333  0.37600847  1.0
  Ni  Ni357  1  0.66666667  0.16666667  0.37600847  1.0
  Ni  Ni358  1  0.66666667  0.50000000  0.37600847  1.0
  Ni  Ni359  1  0.66666667  0.83333333  0.37600847  1.0
  Ni  Ni360  1  0.00000000  0.00000000  0.27600847  1.0
  Ni  Ni361  1  0.00000000  0.33333333  0.27600847  1.0
  Ni  Ni362  1  0.00000000  0.66666667  0.27600847  1.0
  Ni  Ni363  1  0.33333333  0.00000000  0.27600847  1.0
  Ni  Ni364  1  0.33333333  0.33333333  0.27600847  1.0
  Ni  Ni365  1  0.33333333  0.66666667  0.27600847  1.0
  Ni  Ni366  1  0.66666667  0.00000000  0.27600847  1.0
  Ni  Ni367  1  0.66666667  0.33333333  0.27600847  1.0
  Ni  Ni368  1  0.66666667  0.66666667  0.27600847  1.0
  Ni  Ni369  1  0.00000000  0.16666667  0.27600847  1.0
  Ni  Ni370  1  0.00000000  0.50000000  0.27600847  1.0
  Ni  Ni371  1  0.00000000  0.83333333  0.27600847  1.0
  Ni  Ni372  1  0.33333333  0.16666667  0.27600847  1.0
  Ni  Ni373  1  0.33333333  0.50000000  0.27600847  1.0
  Ni  Ni374  1  0.33333333  0.83333333  0.27600847  1.0
  Ni  Ni375  1  0.66666667  0.16666667  0.27600847  1.0
  Ni  Ni376  1  0.66666667  0.50000000  0.27600847  1.0
  Ni  Ni377  1  0.66666667  0.83333333  0.27600847  1.0
  Ni  Ni378  1  0.21337567  0.29334744  0.22399153  1.0
  Ni  Ni379  1  0.21337567  0.62668078  0.22399153  1.0
  Ni  Ni380  1  0.21337567  0.96001411  0.22399153  1.0
  Ni  Ni381  1  0.54670900  0.29334744  0.22399153  1.0
  Ni  Ni382  1  0.54670900  0.62668078  0.22399153  1.0
  Ni  Ni383  1  0.54670900  0.96001411  0.22399153  1.0
  Ni  Ni384  1  0.88004233  0.29334744  0.22399153  1.0
  Ni  Ni385  1  0.88004233  0.62668078  0.22399153  1.0
  Ni  Ni386  1  0.88004233  0.96001411  0.22399153  1.0
  Ni  Ni387  1  0.03998589  0.29334744  0.32802540  1.0
  Ni  Ni388  1  0.03998589  0.62668078  0.32802540  1.0
  Ni  Ni389  1  0.03998589  0.96001411  0.32802540  1.0
  Ni  Ni390  1  0.37331922  0.29334744  0.32802540  1.0
  Ni  Ni391  1  0.37331922  0.62668078  0.32802540  1.0
  Ni  Ni392  1  0.37331922  0.96001411  0.32802540  1.0
  Ni  Ni393  1  0.70665256  0.29334744  0.32802540  1.0
  Ni  Ni394  1  0.70665256  0.62668078  0.32802540  1.0
  Ni  Ni395  1  0.70665256  0.96001411  0.32802540  1.0
  Ni  Ni396  1  0.03998589  0.11995767  0.32802540  1.0
  Ni  Ni397  1  0.03998589  0.45329100  0.32802540  1.0
  Ni  Ni398  1  0.03998589  0.78662433  0.32802540  1.0
  Ni  Ni399  1  0.37331922  0.11995767  0.32802540  1.0
  Ni  Ni400  1  0.37331922  0.45329100  0.32802540  1.0
  Ni  Ni401  1  0.37331922  0.78662433  0.32802540  1.0
  Ni  Ni402  1  0.70665256  0.11995767  0.32802540  1.0
  Ni  Ni403  1  0.70665256  0.45329100  0.32802540  1.0
  Ni  Ni404  1  0.70665256  0.78662433  0.32802540  1.0
  Ni  Ni405  1  0.03998589  0.29334744  0.22399154  1.0
  Ni  Ni406  1  0.03998589  0.62668078  0.22399154  1.0
  Ni  Ni407  1  0.03998589  0.96001411  0.22399154  1.0
  Ni  Ni408  1  0.37331922  0.29334744  0.22399154  1.0
  Ni  Ni409  1  0.37331922  0.62668078  0.22399154  1.0
  Ni  Ni410  1  0.37331922  0.96001411  0.22399154  1.0
  Ni  Ni411  1  0.70665256  0.29334744  0.22399154  1.0
  Ni  Ni412  1  0.70665256  0.62668078  0.22399154  1.0
  Ni  Ni413  1  0.70665256  0.96001411  0.22399153  1.0
  Ni  Ni414  1  0.11995767  0.03998589  0.32802540  1.0
  Ni  Ni415  1  0.11995767  0.37331922  0.32802540  1.0
  Ni  Ni416  1  0.11995767  0.70665256  0.32802540  1.0
  Ni  Ni417  1  0.45329100  0.03998589  0.32802540  1.0
  Ni  Ni418  1  0.45329100  0.37331922  0.32802540  1.0
  Ni  Ni419  1  0.45329100  0.70665256  0.32802540  1.0
  Ni  Ni420  1  0.78662433  0.03998589  0.32802540  1.0
  Ni  Ni421  1  0.78662433  0.37331922  0.32802540  1.0
  Ni  Ni422  1  0.78662433  0.70665256  0.32802540  1.0
  Ni  Ni423  1  0.29334744  0.03998589  0.22399153  1.0
  Ni  Ni424  1  0.29334744  0.37331922  0.22399153  1.0
  Ni  Ni425  1  0.29334744  0.70665256  0.22399153  1.0
  Ni  Ni426  1  0.62668078  0.03998589  0.22399153  1.0
  Ni  Ni427  1  0.62668078  0.37331922  0.22399153  1.0
  Ni  Ni428  1  0.62668078  0.70665256  0.22399153  1.0
  Ni  Ni429  1  0.96001411  0.03998589  0.22399153  1.0
  Ni  Ni430  1  0.96001411  0.37331922  0.22399153  1.0
  Ni  Ni431  1  0.96001411  0.70665256  0.22399153  1.0
  Ni  Ni432  1  0.29334744  0.21337567  0.22399153  1.0
  Ni  Ni433  1  0.29334744  0.54670900  0.22399153  1.0
  Ni  Ni434  1  0.29334744  0.88004233  0.22399153  1.0
  Ni  Ni435  1  0.62668078  0.21337567  0.22399153  1.0
  Ni  Ni436  1  0.62668078  0.54670900  0.22399153  1.0
  Ni  Ni437  1  0.62668078  0.88004233  0.22399153  1.0
  Ni  Ni438  1  0.96001411  0.21337567  0.22399153  1.0
  Ni  Ni439  1  0.96001411  0.54670900  0.22399153  1.0
  Ni  Ni440  1  0.96001411  0.88004233  0.22399153  1.0
  Ni  Ni441  1  0.29334744  0.03998589  0.32802540  1.0
  Ni  Ni442  1  0.29334744  0.37331922  0.32802540  1.0
  Ni  Ni443  1  0.29334744  0.70665256  0.32802540  1.0
  Ni  Ni444  1  0.62668078  0.03998589  0.32802540  1.0
  Ni  Ni445  1  0.62668078  0.37331922  0.32802540  1.0
  Ni  Ni446  1  0.62668078  0.70665256  0.32802540  1.0
  Ni  Ni447  1  0.96001411  0.03998589  0.32802540  1.0
  Ni  Ni448  1  0.96001411  0.37331922  0.32802540  1.0
  Ni  Ni449  1  0.96001411  0.70665256  0.32802540  1.0
  Ni  Ni450  1  0.00468967  0.22378544  0.30746594  1.0
  Ni  Ni451  1  0.00468967  0.55711878  0.30746593  1.0
  Ni  Ni452  1  0.00468967  0.89045211  0.30746593  1.0
  Ni  Ni453  1  0.33802300  0.22378544  0.30746594  1.0
  Ni  Ni454  1  0.33802300  0.55711878  0.30746593  1.0
  Ni  Ni455  1  0.33802300  0.89045211  0.30746594  1.0
  Ni  Ni456  1  0.67135633  0.22378544  0.30746593  1.0
  Ni  Ni457  1  0.67135633  0.55711878  0.30746593  1.0
  Ni  Ni458  1  0.67135633  0.89045211  0.30746593  1.0
  Ni  Ni459  1  0.10954789  0.22378544  0.24455100  1.0
  Ni  Ni460  1  0.10954789  0.55711878  0.24455100  1.0
  Ni  Ni461  1  0.10954789  0.89045211  0.24455100  1.0
  Ni  Ni462  1  0.44288122  0.22378544  0.24455100  1.0
  Ni  Ni463  1  0.44288122  0.55711878  0.24455100  1.0
  Ni  Ni464  1  0.44288122  0.89045211  0.24455100  1.0
  Ni  Ni465  1  0.77621456  0.22378544  0.24455100  1.0
  Ni  Ni466  1  0.77621456  0.55711878  0.24455100  1.0
  Ni  Ni467  1  0.77621456  0.89045211  0.24455100  1.0
  Ni  Ni468  1  0.10954789  0.32864367  0.24455100  1.0
  Ni  Ni469  1  0.10954789  0.66197700  0.24455100  1.0
  Ni  Ni470  1  0.10954789  0.99531033  0.24455100  1.0
  Ni  Ni471  1  0.44288122  0.32864367  0.24455100  1.0
  Ni  Ni472  1  0.44288122  0.66197700  0.24455100  1.0
  Ni  Ni473  1  0.44288122  0.99531033  0.24455100  1.0
  Ni  Ni474  1  0.77621456  0.32864367  0.24455100  1.0
  Ni  Ni475  1  0.77621456  0.66197700  0.24455100  1.0
  Ni  Ni476  1  0.77621456  0.99531033  0.24455100  1.0
  Ni  Ni477  1  0.10954789  0.22378544  0.30746593  1.0
  Ni  Ni478  1  0.10954789  0.55711878  0.30746593  1.0
  Ni  Ni479  1  0.10954789  0.89045211  0.30746594  1.0
  Ni  Ni480  1  0.44288122  0.22378544  0.30746593  1.0
  Ni  Ni481  1  0.44288122  0.55711878  0.30746593  1.0
  Ni  Ni482  1  0.44288122  0.89045211  0.30746594  1.0
  Ni  Ni483  1  0.77621456  0.22378544  0.30746593  1.0
  Ni  Ni484  1  0.77621456  0.55711878  0.30746594  1.0
  Ni  Ni485  1  0.77621456  0.89045211  0.30746593  1.0
  Ni  Ni486  1  0.32864367  0.10954789  0.24455100  1.0
  Ni  Ni487  1  0.32864367  0.44288122  0.24455100  1.0
  Ni  Ni488  1  0.32864367  0.77621456  0.24455100  1.0
  Ni  Ni489  1  0.66197700  0.10954789  0.24455100  1.0
  Ni  Ni490  1  0.66197700  0.44288122  0.24455100  1.0
  Ni  Ni491  1  0.66197700  0.77621456  0.24455100  1.0
  Ni  Ni492  1  0.99531033  0.10954789  0.24455100  1.0
  Ni  Ni493  1  0.99531033  0.44288122  0.24455100  1.0
  Ni  Ni494  1  0.99531033  0.77621456  0.24455100  1.0
  Ni  Ni495  1  0.22378544  0.10954789  0.30746593  1.0
  Ni  Ni496  1  0.22378544  0.44288122  0.30746593  1.0
  Ni  Ni497  1  0.22378544  0.77621456  0.30746593  1.0
  Ni  Ni498  1  0.55711878  0.10954789  0.30746593  1.0
  Ni  Ni499  1  0.55711878  0.44288122  0.30746593  1.0
  Ni  Ni500  1  0.55711878  0.77621456  0.30746593  1.0
  Ni  Ni501  1  0.89045211  0.10954789  0.30746593  1.0
  Ni  Ni502  1  0.89045211  0.44288122  0.30746593  1.0
  Ni  Ni503  1  0.89045211  0.77621456  0.30746593  1.0
  Ni  Ni504  1  0.22378544  0.00468967  0.30746593  1.0
  Ni  Ni505  1  0.22378544  0.33802300  0.30746593  1.0
  Ni  Ni506  1  0.22378544  0.67135633  0.30746593  1.0
  Ni  Ni507  1  0.55711878  0.00468967  0.30746593  1.0
  Ni  Ni508  1  0.55711878  0.33802300  0.30746593  1.0
  Ni  Ni509  1  0.55711878  0.67135633  0.30746593  1.0
  Ni  Ni510  1  0.89045211  0.00468967  0.30746593  1.0
  Ni  Ni511  1  0.89045211  0.33802300  0.30746593  1.0
  Ni  Ni512  1  0.89045211  0.67135633  0.30746593  1.0
  Ni  Ni513  1  0.22378544  0.10954789  0.24455100  1.0
  Ni  Ni514  1  0.22378544  0.44288122  0.24455100  1.0
  Ni  Ni515  1  0.22378544  0.77621456  0.24455100  1.0
  Ni  Ni516  1  0.55711878  0.10954789  0.24455100  1.0
  Ni  Ni517  1  0.55711878  0.44288122  0.24455100  1.0
  Ni  Ni518  1  0.55711878  0.77621456  0.24455100  1.0
  Ni  Ni519  1  0.89045211  0.10954789  0.24455100  1.0
  Ni  Ni520  1  0.89045211  0.44288122  0.24455100  1.0
  Ni  Ni521  1  0.89045211  0.77621456  0.24455100  1.0
