# generated using pymatgen
data_Zr7Ni10
_symmetry_space_group_name_H-M   'P 1'
_cell_length_a   23.13690750
_cell_length_b   23.13690750
_cell_length_c   36.93484400
_cell_angle_alpha   90.00000000
_cell_angle_beta   90.00000000
_cell_angle_gamma   107.00728735
_symmetry_Int_Tables_number   1
_chemical_formula_structural   Zr7Ni10
_chemical_formula_sum   'Zr252 Ni360'
_cell_volume   18907.16062574
_cell_formula_units_Z   36
loop_
 _symmetry_equiv_pos_site_id
 _symmetry_equiv_pos_as_xyz
  1  'x, y, z'
loop_
 _atom_site_type_symbol
 _atom_site_label
 _atom_site_symmetry_multiplicity
 _atom_site_fract_x
 _atom_site_fract_y
 _atom_site_fract_z
 _atom_site_occupancy
  Zr  Zr0  1  0.26950600  0.06382733  0.23596737  1.0
  Zr  Zr1  1  0.26950600  0.39716067  0.23596737  1.0
  Zr  Zr2  1  0.26950600  0.73049400  0.23596738  1.0
  Zr  Zr3  1  0.60283933  0.06382733  0.23596737  1.0
  Zr  Zr4  1  0.60283933  0.39716067  0.23596738  1.0
  Zr  Zr5  1  0.60283933  0.73049400  0.23596737  1.0
  Zr  Zr6  1  0.93617267  0.06382733  0.23596738  1.0
  Zr  Zr7  1  0.93617267  0.39716067  0.23596737  1.0
  Zr  Zr8  1  0.93617267  0.73049400  0.23596737  1.0
  Zr  Zr9  1  0.10283933  0.23049400  0.11096738  1.0
  Zr  Zr10  1  0.10283933  0.56382733  0.11096738  1.0
  Zr  Zr11  1  0.10283933  0.89716067  0.11096738  1.0
  Zr  Zr12  1  0.43617267  0.23049400  0.11096738  1.0
  Zr  Zr13  1  0.43617267  0.56382733  0.11096738  1.0
  Zr  Zr14  1  0.43617267  0.89716067  0.11096738  1.0
  Zr  Zr15  1  0.76950600  0.23049400  0.11096738  1.0
  Zr  Zr16  1  0.76950600  0.56382733  0.11096738  1.0
  Zr  Zr17  1  0.76950600  0.89716067  0.11096738  1.0
  Zr  Zr18  1  0.10415467  0.10415467  0.15785413  1.0
  Zr  Zr19  1  0.10415467  0.43748800  0.15785413  1.0
  Zr  Zr20  1  0.10415467  0.77082133  0.15785413  1.0
  Zr  Zr21  1  0.43748800  0.10415467  0.15785413  1.0
  Zr  Zr22  1  0.43748800  0.43748800  0.15785413  1.0
  Zr  Zr23  1  0.43748800  0.77082133  0.15785412  1.0
  Zr  Zr24  1  0.77082133  0.10415467  0.15785413  1.0
  Zr  Zr25  1  0.77082133  0.43748800  0.15785412  1.0
  Zr  Zr26  1  0.77082133  0.77082133  0.15785412  1.0
  Zr  Zr27  1  0.22917867  0.22917867  0.06408063  1.0
  Zr  Zr28  1  0.22917867  0.56251200  0.06408063  1.0
  Zr  Zr29  1  0.22917867  0.89584533  0.06408063  1.0
  Zr  Zr30  1  0.56251200  0.22917867  0.06408063  1.0
  Zr  Zr31  1  0.56251200  0.56251200  0.06408063  1.0
  Zr  Zr32  1  0.56251200  0.89584533  0.06408063  1.0
  Zr  Zr33  1  0.89584533  0.22917867  0.06408063  1.0
  Zr  Zr34  1  0.89584533  0.56251200  0.06408063  1.0
  Zr  Zr35  1  0.89584533  0.89584533  0.06408062  1.0
  Zr  Zr36  1  0.06382733  0.26950600  0.23596737  1.0
  Zr  Zr37  1  0.06382733  0.60283933  0.23596737  1.0
  Zr  Zr38  1  0.06382733  0.93617267  0.23596738  1.0
  Zr  Zr39  1  0.39716067  0.26950600  0.23596737  1.0
  Zr  Zr40  1  0.39716067  0.60283933  0.23596738  1.0
  Zr  Zr41  1  0.39716067  0.93617267  0.23596737  1.0
  Zr  Zr42  1  0.73049400  0.26950600  0.23596738  1.0
  Zr  Zr43  1  0.73049400  0.60283933  0.23596737  1.0
  Zr  Zr44  1  0.73049400  0.93617267  0.23596737  1.0
  Zr  Zr45  1  0.16721633  0.00054967  0.17346738  1.0
  Zr  Zr46  1  0.16721633  0.33388300  0.17346738  1.0
  Zr  Zr47  1  0.16721633  0.66721633  0.17346738  1.0
  Zr  Zr48  1  0.50054967  0.00054967  0.17346738  1.0
  Zr  Zr49  1  0.50054967  0.33388300  0.17346738  1.0
  Zr  Zr50  1  0.50054967  0.66721633  0.17346738  1.0
  Zr  Zr51  1  0.83388300  0.00054967  0.17346738  1.0
  Zr  Zr52  1  0.83388300  0.33388300  0.17346738  1.0
  Zr  Zr53  1  0.83388300  0.66721633  0.17346738  1.0
  Zr  Zr54  1  0.16611700  0.33278367  0.04846738  1.0
  Zr  Zr55  1  0.16611700  0.66611700  0.04846738  1.0
  Zr  Zr56  1  0.16611700  0.99945033  0.04846738  1.0
  Zr  Zr57  1  0.49945033  0.33278367  0.04846738  1.0
  Zr  Zr58  1  0.49945033  0.66611700  0.04846738  1.0
  Zr  Zr59  1  0.49945033  0.99945033  0.04846738  1.0
  Zr  Zr60  1  0.83278367  0.33278367  0.04846738  1.0
  Zr  Zr61  1  0.83278367  0.66611700  0.04846738  1.0
  Zr  Zr62  1  0.83278367  0.99945033  0.04846738  1.0
  Zr  Zr63  1  0.27082133  0.27082133  0.18908062  1.0
  Zr  Zr64  1  0.27082133  0.60415467  0.18908063  1.0
  Zr  Zr65  1  0.27082133  0.93748800  0.18908062  1.0
  Zr  Zr66  1  0.60415467  0.27082133  0.18908063  1.0
  Zr  Zr67  1  0.60415467  0.60415467  0.18908062  1.0
  Zr  Zr68  1  0.60415467  0.93748800  0.18908063  1.0
  Zr  Zr69  1  0.93748800  0.27082133  0.18908062  1.0
  Zr  Zr70  1  0.93748800  0.60415467  0.18908063  1.0
  Zr  Zr71  1  0.93748800  0.93748800  0.18908062  1.0
  Zr  Zr72  1  0.16666667  0.16666667  0.23596737  1.0
  Zr  Zr73  1  0.16666667  0.50000000  0.23596737  1.0
  Zr  Zr74  1  0.16666667  0.83333333  0.23596738  1.0
  Zr  Zr75  1  0.50000000  0.16666667  0.23596737  1.0
  Zr  Zr76  1  0.50000000  0.50000000  0.23596738  1.0
  Zr  Zr77  1  0.50000000  0.83333333  0.23596737  1.0
  Zr  Zr78  1  0.83333333  0.16666667  0.23596738  1.0
  Zr  Zr79  1  0.83333333  0.50000000  0.23596737  1.0
  Zr  Zr80  1  0.83333333  0.83333333  0.23596737  1.0
  Zr  Zr81  1  0.33278367  0.16611700  0.04846738  1.0
  Zr  Zr82  1  0.33278367  0.49945033  0.04846738  1.0
  Zr  Zr83  1  0.33278367  0.83278367  0.04846738  1.0
  Zr  Zr84  1  0.66611700  0.16611700  0.04846738  1.0
  Zr  Zr85  1  0.66611700  0.49945033  0.04846738  1.0
  Zr  Zr86  1  0.66611700  0.83278367  0.04846738  1.0
  Zr  Zr87  1  0.99945033  0.16611700  0.04846738  1.0
  Zr  Zr88  1  0.99945033  0.49945033  0.04846738  1.0
  Zr  Zr89  1  0.99945033  0.83278367  0.04846738  1.0
  Zr  Zr90  1  0.23049400  0.10283933  0.11096738  1.0
  Zr  Zr91  1  0.23049400  0.43617267  0.11096738  1.0
  Zr  Zr92  1  0.23049400  0.76950600  0.11096738  1.0
  Zr  Zr93  1  0.56382733  0.10283933  0.11096738  1.0
  Zr  Zr94  1  0.56382733  0.43617267  0.11096738  1.0
  Zr  Zr95  1  0.56382733  0.76950600  0.11096738  1.0
  Zr  Zr96  1  0.89716067  0.10283933  0.11096738  1.0
  Zr  Zr97  1  0.89716067  0.43617267  0.11096738  1.0
  Zr  Zr98  1  0.89716067  0.76950600  0.11096738  1.0
  Zr  Zr99  1  0.00054967  0.16721633  0.17346738  1.0
  Zr  Zr100  1  0.00054967  0.50054967  0.17346738  1.0
  Zr  Zr101  1  0.00054967  0.83388300  0.17346738  1.0
  Zr  Zr102  1  0.33388300  0.16721633  0.17346738  1.0
  Zr  Zr103  1  0.33388300  0.50054967  0.17346738  1.0
  Zr  Zr104  1  0.33388300  0.83388300  0.17346738  1.0
  Zr  Zr105  1  0.66721633  0.16721633  0.17346738  1.0
  Zr  Zr106  1  0.66721633  0.50054967  0.17346738  1.0
  Zr  Zr107  1  0.66721633  0.83388300  0.17346738  1.0
  Zr  Zr108  1  0.06251200  0.06251200  0.03285412  1.0
  Zr  Zr109  1  0.06251200  0.39584533  0.03285412  1.0
  Zr  Zr110  1  0.06251200  0.72917867  0.03285412  1.0
  Zr  Zr111  1  0.39584533  0.06251200  0.03285412  1.0
  Zr  Zr112  1  0.39584533  0.39584533  0.03285412  1.0
  Zr  Zr113  1  0.39584533  0.72917867  0.03285412  1.0
  Zr  Zr114  1  0.72917867  0.06251200  0.03285412  1.0
  Zr  Zr115  1  0.72917867  0.39584533  0.03285412  1.0
  Zr  Zr116  1  0.72917867  0.72917867  0.03285412  1.0
  Zr  Zr117  1  0.00000000  0.00000000  0.11096738  1.0
  Zr  Zr118  1  0.00000000  0.33333333  0.11096738  1.0
  Zr  Zr119  1  0.00000000  0.66666667  0.11096738  1.0
  Zr  Zr120  1  0.33333333  0.00000000  0.11096738  1.0
  Zr  Zr121  1  0.33333333  0.33333333  0.11096738  1.0
  Zr  Zr122  1  0.33333333  0.66666667  0.11096738  1.0
  Zr  Zr123  1  0.66666667  0.00000000  0.11096738  1.0
  Zr  Zr124  1  0.66666667  0.33333333  0.11096738  1.0
  Zr  Zr125  1  0.66666667  0.66666667  0.11096738  1.0
  Ni  Ni126  1  0.29801900  0.29801900  0.01236138  1.0
  Ni  Ni127  1  0.29801900  0.63135233  0.01236138  1.0
  Ni  Ni128  1  0.29801900  0.96468567  0.01236138  1.0
  Ni  Ni129  1  0.63135233  0.29801900  0.01236138  1.0
  Ni  Ni130  1  0.63135233  0.63135233  0.01236138  1.0
  Ni  Ni131  1  0.63135233  0.96468567  0.01236138  1.0
  Ni  Ni132  1  0.96468567  0.29801900  0.01236138  1.0
  Ni  Ni133  1  0.96468567  0.63135233  0.01236138  1.0
  Ni  Ni134  1  0.96468567  0.96468567  0.01236137  1.0
  Ni  Ni135  1  0.11590100  0.21342533  0.03774887  1.0
  Ni  Ni136  1  0.11590100  0.54675867  0.03774887  1.0
  Ni  Ni137  1  0.11590100  0.88009200  0.03774887  1.0
  Ni  Ni138  1  0.44923433  0.21342533  0.03774887  1.0
  Ni  Ni139  1  0.44923433  0.54675867  0.03774887  1.0
  Ni  Ni140  1  0.44923433  0.88009200  0.03774887  1.0
  Ni  Ni141  1  0.78256767  0.21342533  0.03774887  1.0
  Ni  Ni142  1  0.78256767  0.54675867  0.03774887  1.0
  Ni  Ni143  1  0.78256767  0.88009200  0.03774887  1.0
  Ni  Ni144  1  0.11701967  0.02048200  0.10929612  1.0
  Ni  Ni145  1  0.11701967  0.35381533  0.10929612  1.0
  Ni  Ni146  1  0.11701967  0.68714867  0.10929612  1.0
  Ni  Ni147  1  0.45035300  0.02048200  0.10929612  1.0
  Ni  Ni148  1  0.45035300  0.35381533  0.10929612  1.0
  Ni  Ni149  1  0.45035300  0.68714867  0.10929612  1.0
  Ni  Ni150  1  0.78368633  0.02048200  0.10929612  1.0
  Ni  Ni151  1  0.78368633  0.35381533  0.10929612  1.0
  Ni  Ni152  1  0.78368633  0.68714867  0.10929612  1.0
  Ni  Ni153  1  0.11990800  0.21743233  0.18418588  1.0
  Ni  Ni154  1  0.11990800  0.55076567  0.18418588  1.0
  Ni  Ni155  1  0.11990800  0.88409900  0.18418588  1.0
  Ni  Ni156  1  0.45324133  0.21743233  0.18418588  1.0
  Ni  Ni157  1  0.45324133  0.55076567  0.18418588  1.0
  Ni  Ni158  1  0.45324133  0.88409900  0.18418588  1.0
  Ni  Ni159  1  0.78657467  0.21743233  0.18418588  1.0
  Ni  Ni160  1  0.78657467  0.55076567  0.18418588  1.0
  Ni  Ni161  1  0.78657467  0.88409900  0.18418588  1.0
  Ni  Ni162  1  0.04675867  0.28256767  0.05918587  1.0
  Ni  Ni163  1  0.04675867  0.61590100  0.05918587  1.0
  Ni  Ni164  1  0.04675867  0.94923433  0.05918587  1.0
  Ni  Ni165  1  0.38009200  0.28256767  0.05918587  1.0
  Ni  Ni166  1  0.38009200  0.61590100  0.05918587  1.0
  Ni  Ni167  1  0.38009200  0.94923433  0.05918587  1.0
  Ni  Ni168  1  0.71342533  0.28256767  0.05918587  1.0
  Ni  Ni169  1  0.71342533  0.61590100  0.05918587  1.0
  Ni  Ni170  1  0.71342533  0.94923433  0.05918587  1.0
  Ni  Ni171  1  0.28256767  0.04675867  0.05918587  1.0
  Ni  Ni172  1  0.28256767  0.38009200  0.05918587  1.0
  Ni  Ni173  1  0.28256767  0.71342533  0.05918587  1.0
  Ni  Ni174  1  0.61590100  0.04675867  0.05918587  1.0
  Ni  Ni175  1  0.61590100  0.38009200  0.05918587  1.0
  Ni  Ni176  1  0.61590100  0.71342533  0.05918587  1.0
  Ni  Ni177  1  0.94923433  0.04675867  0.05918587  1.0
  Ni  Ni178  1  0.94923433  0.38009200  0.05918587  1.0
  Ni  Ni179  1  0.94923433  0.71342533  0.05918587  1.0
  Ni  Ni180  1  0.20198100  0.20198100  0.13736137  1.0
  Ni  Ni181  1  0.20198100  0.53531433  0.13736138  1.0
  Ni  Ni182  1  0.20198100  0.86864767  0.13736138  1.0
  Ni  Ni183  1  0.53531433  0.20198100  0.13736138  1.0
  Ni  Ni184  1  0.53531433  0.53531433  0.13736138  1.0
  Ni  Ni185  1  0.53531433  0.86864767  0.13736138  1.0
  Ni  Ni186  1  0.86864767  0.20198100  0.13736138  1.0
  Ni  Ni187  1  0.86864767  0.53531433  0.13736138  1.0
  Ni  Ni188  1  0.86864767  0.86864767  0.13736138  1.0
  Ni  Ni189  1  0.04964700  0.14618467  0.23429612  1.0
  Ni  Ni190  1  0.04964700  0.47951800  0.23429612  1.0
  Ni  Ni191  1  0.04964700  0.81285133  0.23429612  1.0
  Ni  Ni192  1  0.38298033  0.14618467  0.23429612  1.0
  Ni  Ni193  1  0.38298033  0.47951800  0.23429612  1.0
  Ni  Ni194  1  0.38298033  0.81285133  0.23429612  1.0
  Ni  Ni195  1  0.71631367  0.14618467  0.23429612  1.0
  Ni  Ni196  1  0.71631367  0.47951800  0.23429612  1.0
  Ni  Ni197  1  0.71631367  0.81285133  0.23429612  1.0
  Ni  Ni198  1  0.21743233  0.11990800  0.18418588  1.0
  Ni  Ni199  1  0.21743233  0.45324133  0.18418588  1.0
  Ni  Ni200  1  0.21743233  0.78657467  0.18418588  1.0
  Ni  Ni201  1  0.55076567  0.11990800  0.18418588  1.0
  Ni  Ni202  1  0.55076567  0.45324133  0.18418588  1.0
  Ni  Ni203  1  0.55076567  0.78657467  0.18418588  1.0
  Ni  Ni204  1  0.88409900  0.11990800  0.18418588  1.0
  Ni  Ni205  1  0.88409900  0.45324133  0.18418588  1.0
  Ni  Ni206  1  0.88409900  0.78657467  0.18418588  1.0
  Ni  Ni207  1  0.28657467  0.05076567  0.16274888  1.0
  Ni  Ni208  1  0.28657467  0.38409900  0.16274888  1.0
  Ni  Ni209  1  0.28657467  0.71743233  0.16274888  1.0
  Ni  Ni210  1  0.61990800  0.05076567  0.16274888  1.0
  Ni  Ni211  1  0.61990800  0.38409900  0.16274888  1.0
  Ni  Ni212  1  0.61990800  0.71743233  0.16274888  1.0
  Ni  Ni213  1  0.95324133  0.05076567  0.16274888  1.0
  Ni  Ni214  1  0.95324133  0.38409900  0.16274888  1.0
  Ni  Ni215  1  0.95324133  0.71743233  0.16274888  1.0
  Ni  Ni216  1  0.14618467  0.04964700  0.23429612  1.0
  Ni  Ni217  1  0.14618467  0.38298033  0.23429612  1.0
  Ni  Ni218  1  0.14618467  0.71631367  0.23429612  1.0
  Ni  Ni219  1  0.47951800  0.04964700  0.23429612  1.0
  Ni  Ni220  1  0.47951800  0.38298033  0.23429612  1.0
  Ni  Ni221  1  0.47951800  0.71631367  0.23429612  1.0
  Ni  Ni222  1  0.81285133  0.04964700  0.23429612  1.0
  Ni  Ni223  1  0.81285133  0.38298033  0.23429612  1.0
  Ni  Ni224  1  0.81285133  0.71631367  0.23429612  1.0
  Ni  Ni225  1  0.28368633  0.18714867  0.23763862  1.0
  Ni  Ni226  1  0.28368633  0.52048200  0.23763862  1.0
  Ni  Ni227  1  0.28368633  0.85381533  0.23763862  1.0
  Ni  Ni228  1  0.61701967  0.18714867  0.23763862  1.0
  Ni  Ni229  1  0.61701967  0.52048200  0.23763862  1.0
  Ni  Ni230  1  0.61701967  0.85381533  0.23763862  1.0
  Ni  Ni231  1  0.95035300  0.18714867  0.23763862  1.0
  Ni  Ni232  1  0.95035300  0.52048200  0.23763862  1.0
  Ni  Ni233  1  0.95035300  0.85381533  0.23763862  1.0
  Ni  Ni234  1  0.21631367  0.31285133  0.11263863  1.0
  Ni  Ni235  1  0.21631367  0.64618467  0.11263863  1.0
  Ni  Ni236  1  0.21631367  0.97951800  0.11263863  1.0
  Ni  Ni237  1  0.54964700  0.31285133  0.11263863  1.0
  Ni  Ni238  1  0.54964700  0.64618467  0.11263863  1.0
  Ni  Ni239  1  0.54964700  0.97951800  0.11263863  1.0
  Ni  Ni240  1  0.88298033  0.31285133  0.11263863  1.0
  Ni  Ni241  1  0.88298033  0.64618467  0.11263863  1.0
  Ni  Ni242  1  0.88298033  0.97951800  0.11263862  1.0
  Ni  Ni243  1  0.31285133  0.21631367  0.11263863  1.0
  Ni  Ni244  1  0.31285133  0.54964700  0.11263863  1.0
  Ni  Ni245  1  0.31285133  0.88298033  0.11263863  1.0
  Ni  Ni246  1  0.64618467  0.21631367  0.11263863  1.0
  Ni  Ni247  1  0.64618467  0.54964700  0.11263863  1.0
  Ni  Ni248  1  0.64618467  0.88298033  0.11263863  1.0
  Ni  Ni249  1  0.97951800  0.21631367  0.11263863  1.0
  Ni  Ni250  1  0.97951800  0.54964700  0.11263863  1.0
  Ni  Ni251  1  0.97951800  0.88298033  0.11263862  1.0
  Ni  Ni252  1  0.03531433  0.03531433  0.20957338  1.0
  Ni  Ni253  1  0.03531433  0.36864767  0.20957338  1.0
  Ni  Ni254  1  0.03531433  0.70198100  0.20957338  1.0
  Ni  Ni255  1  0.36864767  0.03531433  0.20957338  1.0
  Ni  Ni256  1  0.36864767  0.36864767  0.20957338  1.0
  Ni  Ni257  1  0.36864767  0.70198100  0.20957338  1.0
  Ni  Ni258  1  0.70198100  0.03531433  0.20957338  1.0
  Ni  Ni259  1  0.70198100  0.36864767  0.20957338  1.0
  Ni  Ni260  1  0.70198100  0.70198100  0.20957338  1.0
  Ni  Ni261  1  0.13135233  0.13135233  0.08457338  1.0
  Ni  Ni262  1  0.13135233  0.46468567  0.08457338  1.0
  Ni  Ni263  1  0.13135233  0.79801900  0.08457338  1.0
  Ni  Ni264  1  0.46468567  0.13135233  0.08457338  1.0
  Ni  Ni265  1  0.46468567  0.46468567  0.08457338  1.0
  Ni  Ni266  1  0.46468567  0.79801900  0.08457338  1.0
  Ni  Ni267  1  0.79801900  0.13135233  0.08457338  1.0
  Ni  Ni268  1  0.79801900  0.46468567  0.08457338  1.0
  Ni  Ni269  1  0.79801900  0.79801900  0.08457338  1.0
  Ni  Ni270  1  0.18714867  0.28368633  0.23763862  1.0
  Ni  Ni271  1  0.18714867  0.61701967  0.23763862  1.0
  Ni  Ni272  1  0.18714867  0.95035300  0.23763862  1.0
  Ni  Ni273  1  0.52048200  0.28368633  0.23763862  1.0
  Ni  Ni274  1  0.52048200  0.61701967  0.23763862  1.0
  Ni  Ni275  1  0.52048200  0.95035300  0.23763862  1.0
  Ni  Ni276  1  0.85381533  0.28368633  0.23763862  1.0
  Ni  Ni277  1  0.85381533  0.61701967  0.23763862  1.0
  Ni  Ni278  1  0.85381533  0.95035300  0.23763862  1.0
  Ni  Ni279  1  0.02048200  0.11701967  0.10929612  1.0
  Ni  Ni280  1  0.02048200  0.45035300  0.10929612  1.0
  Ni  Ni281  1  0.02048200  0.78368633  0.10929612  1.0
  Ni  Ni282  1  0.35381533  0.11701967  0.10929612  1.0
  Ni  Ni283  1  0.35381533  0.45035300  0.10929612  1.0
  Ni  Ni284  1  0.35381533  0.78368633  0.10929612  1.0
  Ni  Ni285  1  0.68714867  0.11701967  0.10929612  1.0
  Ni  Ni286  1  0.68714867  0.45035300  0.10929612  1.0
  Ni  Ni287  1  0.68714867  0.78368633  0.10929612  1.0
  Ni  Ni288  1  0.05076567  0.28657467  0.16274888  1.0
  Ni  Ni289  1  0.05076567  0.61990800  0.16274888  1.0
  Ni  Ni290  1  0.05076567  0.95324133  0.16274888  1.0
  Ni  Ni291  1  0.38409900  0.28657467  0.16274888  1.0
  Ni  Ni292  1  0.38409900  0.61990800  0.16274888  1.0
  Ni  Ni293  1  0.38409900  0.95324133  0.16274888  1.0
  Ni  Ni294  1  0.71743233  0.28657467  0.16274888  1.0
  Ni  Ni295  1  0.71743233  0.61990800  0.16274888  1.0
  Ni  Ni296  1  0.71743233  0.95324133  0.16274888  1.0
  Ni  Ni297  1  0.21342533  0.11590100  0.03774887  1.0
  Ni  Ni298  1  0.21342533  0.44923433  0.03774887  1.0
  Ni  Ni299  1  0.21342533  0.78256767  0.03774887  1.0
  Ni  Ni300  1  0.54675867  0.11590100  0.03774887  1.0
  Ni  Ni301  1  0.54675867  0.44923433  0.03774887  1.0
  Ni  Ni302  1  0.54675867  0.78256767  0.03774887  1.0
  Ni  Ni303  1  0.88009200  0.11590100  0.03774887  1.0
  Ni  Ni304  1  0.88009200  0.44923433  0.03774887  1.0
  Ni  Ni305  1  0.88009200  0.78256767  0.03774887  1.0
  Zr  Zr306  1  0.26950600  0.06382733  0.48596737  1.0
  Zr  Zr307  1  0.26950600  0.39716067  0.48596737  1.0
  Zr  Zr308  1  0.26950600  0.73049400  0.48596737  1.0
  Zr  Zr309  1  0.60283933  0.06382733  0.48596737  1.0
  Zr  Zr310  1  0.60283933  0.39716067  0.48596737  1.0
  Zr  Zr311  1  0.60283933  0.73049400  0.48596737  1.0
  Zr  Zr312  1  0.93617267  0.06382733  0.48596737  1.0
  Zr  Zr313  1  0.93617267  0.39716067  0.48596737  1.0
  Zr  Zr314  1  0.93617267  0.73049400  0.48596737  1.0
  Zr  Zr315  1  0.10283933  0.23049400  0.36096738  1.0
  Zr  Zr316  1  0.10283933  0.56382733  0.36096738  1.0
  Zr  Zr317  1  0.10283933  0.89716067  0.36096738  1.0
  Zr  Zr318  1  0.43617267  0.23049400  0.36096738  1.0
  Zr  Zr319  1  0.43617267  0.56382733  0.36096738  1.0
  Zr  Zr320  1  0.43617267  0.89716067  0.36096738  1.0
  Zr  Zr321  1  0.76950600  0.23049400  0.36096738  1.0
  Zr  Zr322  1  0.76950600  0.56382733  0.36096738  1.0
  Zr  Zr323  1  0.76950600  0.89716067  0.36096738  1.0
  Zr  Zr324  1  0.10415467  0.10415467  0.40785413  1.0
  Zr  Zr325  1  0.10415467  0.43748800  0.40785413  1.0
  Zr  Zr326  1  0.10415467  0.77082133  0.40785413  1.0
  Zr  Zr327  1  0.43748800  0.10415467  0.40785413  1.0
  Zr  Zr328  1  0.43748800  0.43748800  0.40785413  1.0
  Zr  Zr329  1  0.43748800  0.77082133  0.40785413  1.0
  Zr  Zr330  1  0.77082133  0.10415467  0.40785413  1.0
  Zr  Zr331  1  0.77082133  0.43748800  0.40785413  1.0
  Zr  Zr332  1  0.77082133  0.77082133  0.40785413  1.0
  Zr  Zr333  1  0.22917867  0.22917867  0.31408062  1.0
  Zr  Zr334  1  0.22917867  0.56251200  0.31408062  1.0
  Zr  Zr335  1  0.22917867  0.89584533  0.31408062  1.0
  Zr  Zr336  1  0.56251200  0.22917867  0.31408062  1.0
  Zr  Zr337  1  0.56251200  0.56251200  0.31408062  1.0
  Zr  Zr338  1  0.56251200  0.89584533  0.31408062  1.0
  Zr  Zr339  1  0.89584533  0.22917867  0.31408062  1.0
  Zr  Zr340  1  0.89584533  0.56251200  0.31408062  1.0
  Zr  Zr341  1  0.89584533  0.89584533  0.31408062  1.0
  Zr  Zr342  1  0.06382733  0.26950600  0.48596737  1.0
  Zr  Zr343  1  0.06382733  0.60283933  0.48596737  1.0
  Zr  Zr344  1  0.06382733  0.93617267  0.48596737  1.0
  Zr  Zr345  1  0.39716067  0.26950600  0.48596737  1.0
  Zr  Zr346  1  0.39716067  0.60283933  0.48596737  1.0
  Zr  Zr347  1  0.39716067  0.93617267  0.48596737  1.0
  Zr  Zr348  1  0.73049400  0.26950600  0.48596737  1.0
  Zr  Zr349  1  0.73049400  0.60283933  0.48596737  1.0
  Zr  Zr350  1  0.73049400  0.93617267  0.48596737  1.0
  Zr  Zr351  1  0.16721633  0.00054967  0.42346737  1.0
  Zr  Zr352  1  0.16721633  0.33388300  0.42346737  1.0
  Zr  Zr353  1  0.16721633  0.66721633  0.42346737  1.0
  Zr  Zr354  1  0.50054967  0.00054967  0.42346737  1.0
  Zr  Zr355  1  0.50054967  0.33388300  0.42346737  1.0
  Zr  Zr356  1  0.50054967  0.66721633  0.42346737  1.0
  Zr  Zr357  1  0.83388300  0.00054967  0.42346737  1.0
  Zr  Zr358  1  0.83388300  0.33388300  0.42346737  1.0
  Zr  Zr359  1  0.83388300  0.66721633  0.42346737  1.0
  Zr  Zr360  1  0.16611700  0.33278367  0.29846738  1.0
  Zr  Zr361  1  0.16611700  0.66611700  0.29846737  1.0
  Zr  Zr362  1  0.16611700  0.99945033  0.29846738  1.0
  Zr  Zr363  1  0.49945033  0.33278367  0.29846737  1.0
  Zr  Zr364  1  0.49945033  0.66611700  0.29846738  1.0
  Zr  Zr365  1  0.49945033  0.99945033  0.29846738  1.0
  Zr  Zr366  1  0.83278367  0.33278367  0.29846738  1.0
  Zr  Zr367  1  0.83278367  0.66611700  0.29846738  1.0
  Zr  Zr368  1  0.83278367  0.99945033  0.29846738  1.0
  Zr  Zr369  1  0.27082133  0.27082133  0.43908062  1.0
  Zr  Zr370  1  0.27082133  0.60415467  0.43908062  1.0
  Zr  Zr371  1  0.27082133  0.93748800  0.43908062  1.0
  Zr  Zr372  1  0.60415467  0.27082133  0.43908062  1.0
  Zr  Zr373  1  0.60415467  0.60415467  0.43908062  1.0
  Zr  Zr374  1  0.60415467  0.93748800  0.43908062  1.0
  Zr  Zr375  1  0.93748800  0.27082133  0.43908062  1.0
  Zr  Zr376  1  0.93748800  0.60415467  0.43908062  1.0
  Zr  Zr377  1  0.93748800  0.93748800  0.43908063  1.0
  Zr  Zr378  1  0.16666667  0.16666667  0.48596737  1.0
  Zr  Zr379  1  0.16666667  0.50000000  0.48596737  1.0
  Zr  Zr380  1  0.16666667  0.83333333  0.48596737  1.0
  Zr  Zr381  1  0.50000000  0.16666667  0.48596737  1.0
  Zr  Zr382  1  0.50000000  0.50000000  0.48596737  1.0
  Zr  Zr383  1  0.50000000  0.83333333  0.48596737  1.0
  Zr  Zr384  1  0.83333333  0.16666667  0.48596737  1.0
  Zr  Zr385  1  0.83333333  0.50000000  0.48596737  1.0
  Zr  Zr386  1  0.83333333  0.83333333  0.48596737  1.0
  Zr  Zr387  1  0.33278367  0.16611700  0.29846738  1.0
  Zr  Zr388  1  0.33278367  0.49945033  0.29846737  1.0
  Zr  Zr389  1  0.33278367  0.83278367  0.29846738  1.0
  Zr  Zr390  1  0.66611700  0.16611700  0.29846737  1.0
  Zr  Zr391  1  0.66611700  0.49945033  0.29846738  1.0
  Zr  Zr392  1  0.66611700  0.83278367  0.29846738  1.0
  Zr  Zr393  1  0.99945033  0.16611700  0.29846738  1.0
  Zr  Zr394  1  0.99945033  0.49945033  0.29846738  1.0
  Zr  Zr395  1  0.99945033  0.83278367  0.29846738  1.0
  Zr  Zr396  1  0.23049400  0.10283933  0.36096738  1.0
  Zr  Zr397  1  0.23049400  0.43617267  0.36096738  1.0
  Zr  Zr398  1  0.23049400  0.76950600  0.36096738  1.0
  Zr  Zr399  1  0.56382733  0.10283933  0.36096738  1.0
  Zr  Zr400  1  0.56382733  0.43617267  0.36096738  1.0
  Zr  Zr401  1  0.56382733  0.76950600  0.36096738  1.0
  Zr  Zr402  1  0.89716067  0.10283933  0.36096738  1.0
  Zr  Zr403  1  0.89716067  0.43617267  0.36096738  1.0
  Zr  Zr404  1  0.89716067  0.76950600  0.36096738  1.0
  Zr  Zr405  1  0.00054967  0.16721633  0.42346737  1.0
  Zr  Zr406  1  0.00054967  0.50054967  0.42346737  1.0
  Zr  Zr407  1  0.00054967  0.83388300  0.42346737  1.0
  Zr  Zr408  1  0.33388300  0.16721633  0.42346737  1.0
  Zr  Zr409  1  0.33388300  0.50054967  0.42346737  1.0
  Zr  Zr410  1  0.33388300  0.83388300  0.42346737  1.0
  Zr  Zr411  1  0.66721633  0.16721633  0.42346737  1.0
  Zr  Zr412  1  0.66721633  0.50054967  0.42346737  1.0
  Zr  Zr413  1  0.66721633  0.83388300  0.42346737  1.0
  Zr  Zr414  1  0.06251200  0.06251200  0.28285413  1.0
  Zr  Zr415  1  0.06251200  0.39584533  0.28285413  1.0
  Zr  Zr416  1  0.06251200  0.72917867  0.28285413  1.0
  Zr  Zr417  1  0.39584533  0.06251200  0.28285413  1.0
  Zr  Zr418  1  0.39584533  0.39584533  0.28285413  1.0
  Zr  Zr419  1  0.39584533  0.72917867  0.28285413  1.0
  Zr  Zr420  1  0.72917867  0.06251200  0.28285413  1.0
  Zr  Zr421  1  0.72917867  0.39584533  0.28285413  1.0
  Zr  Zr422  1  0.72917867  0.72917867  0.28285413  1.0
  Zr  Zr423  1  0.00000000  0.00000000  0.36096737  1.0
  Zr  Zr424  1  0.00000000  0.33333333  0.36096737  1.0
  Zr  Zr425  1  0.00000000  0.66666667  0.36096738  1.0
  Zr  Zr426  1  0.33333333  0.00000000  0.36096737  1.0
  Zr  Zr427  1  0.33333333  0.33333333  0.36096738  1.0
  Zr  Zr428  1  0.33333333  0.66666667  0.36096737  1.0
  Zr  Zr429  1  0.66666667  0.00000000  0.36096738  1.0
  Zr  Zr430  1  0.66666667  0.33333333  0.36096737  1.0
  Zr  Zr431  1  0.66666667  0.66666667  0.36096737  1.0
  Ni  Ni432  1  0.29801900  0.29801900  0.26236138  1.0
  Ni  Ni433  1  0.29801900  0.63135233  0.26236137  1.0
  Ni  Ni434  1  0.29801900  0.96468567  0.26236138  1.0
  Ni  Ni435  1  0.63135233  0.29801900  0.26236137  1.0
  Ni  Ni436  1  0.63135233  0.63135233  0.26236138  1.0
  Ni  Ni437  1  0.63135233  0.96468567  0.26236138  1.0
  Ni  Ni438  1  0.96468567  0.29801900  0.26236138  1.0
  Ni  Ni439  1  0.96468567  0.63135233  0.26236138  1.0
  Ni  Ni440  1  0.96468567  0.96468567  0.26236138  1.0
  Ni  Ni441  1  0.11590100  0.21342533  0.28774887  1.0
  Ni  Ni442  1  0.11590100  0.54675867  0.28774887  1.0
  Ni  Ni443  1  0.11590100  0.88009200  0.28774887  1.0
  Ni  Ni444  1  0.44923433  0.21342533  0.28774887  1.0
  Ni  Ni445  1  0.44923433  0.54675867  0.28774887  1.0
  Ni  Ni446  1  0.44923433  0.88009200  0.28774887  1.0
  Ni  Ni447  1  0.78256767  0.21342533  0.28774887  1.0
  Ni  Ni448  1  0.78256767  0.54675867  0.28774887  1.0
  Ni  Ni449  1  0.78256767  0.88009200  0.28774887  1.0
  Ni  Ni450  1  0.11701967  0.02048200  0.35929612  1.0
  Ni  Ni451  1  0.11701967  0.35381533  0.35929612  1.0
  Ni  Ni452  1  0.11701967  0.68714867  0.35929612  1.0
  Ni  Ni453  1  0.45035300  0.02048200  0.35929612  1.0
  Ni  Ni454  1  0.45035300  0.35381533  0.35929612  1.0
  Ni  Ni455  1  0.45035300  0.68714867  0.35929612  1.0
  Ni  Ni456  1  0.78368633  0.02048200  0.35929612  1.0
  Ni  Ni457  1  0.78368633  0.35381533  0.35929612  1.0
  Ni  Ni458  1  0.78368633  0.68714867  0.35929612  1.0
  Ni  Ni459  1  0.11990800  0.21743233  0.43418588  1.0
  Ni  Ni460  1  0.11990800  0.55076567  0.43418588  1.0
  Ni  Ni461  1  0.11990800  0.88409900  0.43418587  1.0
  Ni  Ni462  1  0.45324133  0.21743233  0.43418588  1.0
  Ni  Ni463  1  0.45324133  0.55076567  0.43418587  1.0
  Ni  Ni464  1  0.45324133  0.88409900  0.43418587  1.0
  Ni  Ni465  1  0.78657467  0.21743233  0.43418587  1.0
  Ni  Ni466  1  0.78657467  0.55076567  0.43418587  1.0
  Ni  Ni467  1  0.78657467  0.88409900  0.43418588  1.0
  Ni  Ni468  1  0.04675867  0.28256767  0.30918587  1.0
  Ni  Ni469  1  0.04675867  0.61590100  0.30918587  1.0
  Ni  Ni470  1  0.04675867  0.94923433  0.30918587  1.0
  Ni  Ni471  1  0.38009200  0.28256767  0.30918587  1.0
  Ni  Ni472  1  0.38009200  0.61590100  0.30918587  1.0
  Ni  Ni473  1  0.38009200  0.94923433  0.30918587  1.0
  Ni  Ni474  1  0.71342533  0.28256767  0.30918587  1.0
  Ni  Ni475  1  0.71342533  0.61590100  0.30918587  1.0
  Ni  Ni476  1  0.71342533  0.94923433  0.30918587  1.0
  Ni  Ni477  1  0.28256767  0.04675867  0.30918587  1.0
  Ni  Ni478  1  0.28256767  0.38009200  0.30918587  1.0
  Ni  Ni479  1  0.28256767  0.71342533  0.30918587  1.0
  Ni  Ni480  1  0.61590100  0.04675867  0.30918587  1.0
  Ni  Ni481  1  0.61590100  0.38009200  0.30918587  1.0
  Ni  Ni482  1  0.61590100  0.71342533  0.30918587  1.0
  Ni  Ni483  1  0.94923433  0.04675867  0.30918587  1.0
  Ni  Ni484  1  0.94923433  0.38009200  0.30918587  1.0
  Ni  Ni485  1  0.94923433  0.71342533  0.30918587  1.0
  Ni  Ni486  1  0.20198100  0.20198100  0.38736138  1.0
  Ni  Ni487  1  0.20198100  0.53531433  0.38736137  1.0
  Ni  Ni488  1  0.20198100  0.86864767  0.38736138  1.0
  Ni  Ni489  1  0.53531433  0.20198100  0.38736137  1.0
  Ni  Ni490  1  0.53531433  0.53531433  0.38736138  1.0
  Ni  Ni491  1  0.53531433  0.86864767  0.38736138  1.0
  Ni  Ni492  1  0.86864767  0.20198100  0.38736138  1.0
  Ni  Ni493  1  0.86864767  0.53531433  0.38736138  1.0
  Ni  Ni494  1  0.86864767  0.86864767  0.38736138  1.0
  Ni  Ni495  1  0.04964700  0.14618467  0.48429612  1.0
  Ni  Ni496  1  0.04964700  0.47951800  0.48429612  1.0
  Ni  Ni497  1  0.04964700  0.81285133  0.48429612  1.0
  Ni  Ni498  1  0.38298033  0.14618467  0.48429612  1.0
  Ni  Ni499  1  0.38298033  0.47951800  0.48429612  1.0
  Ni  Ni500  1  0.38298033  0.81285133  0.48429612  1.0
  Ni  Ni501  1  0.71631367  0.14618467  0.48429612  1.0
  Ni  Ni502  1  0.71631367  0.47951800  0.48429612  1.0
  Ni  Ni503  1  0.71631367  0.81285133  0.48429612  1.0
  Ni  Ni504  1  0.21743233  0.11990800  0.43418588  1.0
  Ni  Ni505  1  0.21743233  0.45324133  0.43418588  1.0
  Ni  Ni506  1  0.21743233  0.78657467  0.43418587  1.0
  Ni  Ni507  1  0.55076567  0.11990800  0.43418588  1.0
  Ni  Ni508  1  0.55076567  0.45324133  0.43418587  1.0
  Ni  Ni509  1  0.55076567  0.78657467  0.43418587  1.0
  Ni  Ni510  1  0.88409900  0.11990800  0.43418587  1.0
  Ni  Ni511  1  0.88409900  0.45324133  0.43418587  1.0
  Ni  Ni512  1  0.88409900  0.78657467  0.43418588  1.0
  Ni  Ni513  1  0.28657467  0.05076567  0.41274887  1.0
  Ni  Ni514  1  0.28657467  0.38409900  0.41274887  1.0
  Ni  Ni515  1  0.28657467  0.71743233  0.41274887  1.0
  Ni  Ni516  1  0.61990800  0.05076567  0.41274887  1.0
  Ni  Ni517  1  0.61990800  0.38409900  0.41274887  1.0
  Ni  Ni518  1  0.61990800  0.71743233  0.41274887  1.0
  Ni  Ni519  1  0.95324133  0.05076567  0.41274887  1.0
  Ni  Ni520  1  0.95324133  0.38409900  0.41274887  1.0
  Ni  Ni521  1  0.95324133  0.71743233  0.41274887  1.0
  Ni  Ni522  1  0.14618467  0.04964700  0.48429612  1.0
  Ni  Ni523  1  0.14618467  0.38298033  0.48429612  1.0
  Ni  Ni524  1  0.14618467  0.71631367  0.48429612  1.0
  Ni  Ni525  1  0.47951800  0.04964700  0.48429612  1.0
  Ni  Ni526  1  0.47951800  0.38298033  0.48429612  1.0
  Ni  Ni527  1  0.47951800  0.71631367  0.48429612  1.0
  Ni  Ni528  1  0.81285133  0.04964700  0.48429612  1.0
  Ni  Ni529  1  0.81285133  0.38298033  0.48429612  1.0
  Ni  Ni530  1  0.81285133  0.71631367  0.48429612  1.0
  Ni  Ni531  1  0.28368633  0.18714867  0.48763862  1.0
  Ni  Ni532  1  0.28368633  0.52048200  0.48763862  1.0
  Ni  Ni533  1  0.28368633  0.85381533  0.48763862  1.0
  Ni  Ni534  1  0.61701967  0.18714867  0.48763862  1.0
  Ni  Ni535  1  0.61701967  0.52048200  0.48763862  1.0
  Ni  Ni536  1  0.61701967  0.85381533  0.48763862  1.0
  Ni  Ni537  1  0.95035300  0.18714867  0.48763862  1.0
  Ni  Ni538  1  0.95035300  0.52048200  0.48763862  1.0
  Ni  Ni539  1  0.95035300  0.85381533  0.48763862  1.0
  Ni  Ni540  1  0.21631367  0.31285133  0.36263862  1.0
  Ni  Ni541  1  0.21631367  0.64618467  0.36263862  1.0
  Ni  Ni542  1  0.21631367  0.97951800  0.36263862  1.0
  Ni  Ni543  1  0.54964700  0.31285133  0.36263862  1.0
  Ni  Ni544  1  0.54964700  0.64618467  0.36263862  1.0
  Ni  Ni545  1  0.54964700  0.97951800  0.36263862  1.0
  Ni  Ni546  1  0.88298033  0.31285133  0.36263862  1.0
  Ni  Ni547  1  0.88298033  0.64618467  0.36263862  1.0
  Ni  Ni548  1  0.88298033  0.97951800  0.36263862  1.0
  Ni  Ni549  1  0.31285133  0.21631367  0.36263862  1.0
  Ni  Ni550  1  0.31285133  0.54964700  0.36263862  1.0
  Ni  Ni551  1  0.31285133  0.88298033  0.36263862  1.0
  Ni  Ni552  1  0.64618467  0.21631367  0.36263862  1.0
  Ni  Ni553  1  0.64618467  0.54964700  0.36263862  1.0
  Ni  Ni554  1  0.64618467  0.88298033  0.36263862  1.0
  Ni  Ni555  1  0.97951800  0.21631367  0.36263862  1.0
  Ni  Ni556  1  0.97951800  0.54964700  0.36263862  1.0
  Ni  Ni557  1  0.97951800  0.88298033  0.36263862  1.0
  Ni  Ni558  1  0.03531433  0.03531433  0.45957338  1.0
  Ni  Ni559  1  0.03531433  0.36864767  0.45957338  1.0
  Ni  Ni560  1  0.03531433  0.70198100  0.45957337  1.0
  Ni  Ni561  1  0.36864767  0.03531433  0.45957338  1.0
  Ni  Ni562  1  0.36864767  0.36864767  0.45957337  1.0
  Ni  Ni563  1  0.36864767  0.70198100  0.45957337  1.0
  Ni  Ni564  1  0.70198100  0.03531433  0.45957337  1.0
  Ni  Ni565  1  0.70198100  0.36864767  0.45957337  1.0
  Ni  Ni566  1  0.70198100  0.70198100  0.45957338  1.0
  Ni  Ni567  1  0.13135233  0.13135233  0.33457337  1.0
  Ni  Ni568  1  0.13135233  0.46468567  0.33457337  1.0
  Ni  Ni569  1  0.13135233  0.79801900  0.33457337  1.0
  Ni  Ni570  1  0.46468567  0.13135233  0.33457337  1.0
  Ni  Ni571  1  0.46468567  0.46468567  0.33457337  1.0
  Ni  Ni572  1  0.46468567  0.79801900  0.33457337  1.0
  Ni  Ni573  1  0.79801900  0.13135233  0.33457337  1.0
  Ni  Ni574  1  0.79801900  0.46468567  0.33457337  1.0
  Ni  Ni575  1  0.79801900  0.79801900  0.33457337  1.0
  Ni  Ni576  1  0.18714867  0.28368633  0.48763862  1.0
  Ni  Ni577  1  0.18714867  0.61701967  0.48763862  1.0
  Ni  Ni578  1  0.18714867  0.95035300  0.48763862  1.0
  Ni  Ni579  1  0.52048200  0.28368633  0.48763862  1.0
  Ni  Ni580  1  0.52048200  0.61701967  0.48763862  1.0
  Ni  Ni581  1  0.52048200  0.95035300  0.48763862  1.0
  Ni  Ni582  1  0.85381533  0.28368633  0.48763862  1.0
  Ni  Ni583  1  0.85381533  0.61701967  0.48763862  1.0
  Ni  Ni584  1  0.85381533  0.95035300  0.48763862  1.0
  Ni  Ni585  1  0.02048200  0.11701967  0.35929612  1.0
  Ni  Ni586  1  0.02048200  0.45035300  0.35929612  1.0
  Ni  Ni587  1  0.02048200  0.78368633  0.35929612  1.0
  Ni  Ni588  1  0.35381533  0.11701967  0.35929612  1.0
  Ni  Ni589  1  0.35381533  0.45035300  0.35929612  1.0
  Ni  Ni590  1  0.35381533  0.78368633  0.35929612  1.0
  Ni  Ni591  1  0.68714867  0.11701967  0.35929612  1.0
  Ni  Ni592  1  0.68714867  0.45035300  0.35929612  1.0
  Ni  Ni593  1  0.68714867  0.78368633  0.35929612  1.0
  Ni  Ni594  1  0.05076567  0.28657467  0.41274887  1.0
  Ni  Ni595  1  0.05076567  0.61990800  0.41274887  1.0
  Ni  Ni596  1  0.05076567  0.95324133  0.41274887  1.0
  Ni  Ni597  1  0.38409900  0.28657467  0.41274887  1.0
  Ni  Ni598  1  0.38409900  0.61990800  0.41274887  1.0
  Ni  Ni599  1  0.38409900  0.95324133  0.41274887  1.0
  Ni  Ni600  1  0.71743233  0.28657467  0.41274887  1.0
  Ni  Ni601  1  0.71743233  0.61990800  0.41274887  1.0
  Ni  Ni602  1  0.71743233  0.95324133  0.41274887  1.0
  Ni  Ni603  1  0.21342533  0.11590100  0.28774887  1.0
  Ni  Ni604  1  0.21342533  0.44923433  0.28774887  1.0
  Ni  Ni605  1  0.21342533  0.78256767  0.28774887  1.0
  Ni  Ni606  1  0.54675867  0.11590100  0.28774887  1.0
  Ni  Ni607  1  0.54675867  0.44923433  0.28774887  1.0
  Ni  Ni608  1  0.54675867  0.78256767  0.28774887  1.0
  Ni  Ni609  1  0.88009200  0.11590100  0.28774887  1.0
  Ni  Ni610  1  0.88009200  0.44923433  0.28774887  1.0
  Ni  Ni611  1  0.88009200  0.78256767  0.28774887  1.0
