# generated using pymatgen
data_Zr7Ni10
_symmetry_space_group_name_H-M   'P 1'
_cell_length_a   27.40210500
_cell_length_b   27.43948500
_cell_length_c   37.10169600
_cell_angle_alpha   90.00000000
_cell_angle_beta   90.00000000
_cell_angle_gamma   90.00000000
_symmetry_Int_Tables_number   1
_chemical_formula_structural   Zr7Ni10
_chemical_formula_sum   'Zr252 Ni360'
_cell_volume   27896.75220401
_cell_formula_units_Z   36
loop_
 _symmetry_equiv_pos_site_id
 _symmetry_equiv_pos_as_xyz
  1  'x, y, z'
loop_
 _atom_site_type_symbol
 _atom_site_label
 _atom_site_symmetry_multiplicity
 _atom_site_fract_x
 _atom_site_fract_y
 _atom_site_fract_z
 _atom_site_occupancy
  Zr  Zr0  1  0.06185533  0.27130900  0.14143183  1.0
  Zr  Zr1  1  0.06185533  0.60464233  0.14143183  1.0
  Zr  Zr2  1  0.06185533  0.93797567  0.14143183  1.0
  Zr  Zr3  1  0.39518867  0.27130900  0.14143183  1.0
  Zr  Zr4  1  0.39518867  0.60464233  0.14143183  1.0
  Zr  Zr5  1  0.39518867  0.93797567  0.14143183  1.0
  Zr  Zr6  1  0.72852200  0.27130900  0.14143183  1.0
  Zr  Zr7  1  0.72852200  0.60464233  0.14143183  1.0
  Zr  Zr8  1  0.72852200  0.93797567  0.14143183  1.0
  Zr  Zr9  1  0.16660267  0.16703200  0.20621183  1.0
  Zr  Zr10  1  0.16660267  0.50036533  0.20621183  1.0
  Zr  Zr11  1  0.16660267  0.83369867  0.20621183  1.0
  Zr  Zr12  1  0.49993600  0.16703200  0.20621183  1.0
  Zr  Zr13  1  0.49993600  0.50036533  0.20621183  1.0
  Zr  Zr14  1  0.49993600  0.83369867  0.20621183  1.0
  Zr  Zr15  1  0.83326933  0.16703200  0.20621183  1.0
  Zr  Zr16  1  0.83326933  0.50036533  0.20621183  1.0
  Zr  Zr17  1  0.83326933  0.83369867  0.20621183  1.0
  Zr  Zr18  1  0.00000000  0.16666667  0.14244550  1.0
  Zr  Zr19  1  0.00000000  0.50000000  0.14244550  1.0
  Zr  Zr20  1  0.00000000  0.83333333  0.14244550  1.0
  Zr  Zr21  1  0.33333333  0.16666667  0.14244550  1.0
  Zr  Zr22  1  0.33333333  0.50000000  0.14244550  1.0
  Zr  Zr23  1  0.33333333  0.83333333  0.14244550  1.0
  Zr  Zr24  1  0.66666667  0.16666667  0.14244550  1.0
  Zr  Zr25  1  0.66666667  0.50000000  0.14244550  1.0
  Zr  Zr26  1  0.66666667  0.83333333  0.14244550  1.0
  Zr  Zr27  1  0.10481133  0.10464233  0.14143183  1.0
  Zr  Zr28  1  0.10481133  0.43797567  0.14143183  1.0
  Zr  Zr29  1  0.10481133  0.77130900  0.14143183  1.0
  Zr  Zr30  1  0.43814467  0.10464233  0.14143183  1.0
  Zr  Zr31  1  0.43814467  0.43797567  0.14143183  1.0
  Zr  Zr32  1  0.43814467  0.77130900  0.14143183  1.0
  Zr  Zr33  1  0.77147800  0.10464233  0.14143183  1.0
  Zr  Zr34  1  0.77147800  0.43797567  0.14143183  1.0
  Zr  Zr35  1  0.77147800  0.77130900  0.14143183  1.0
  Zr  Zr36  1  0.16673067  0.00036533  0.24534583  1.0
  Zr  Zr37  1  0.16673067  0.33369867  0.24534583  1.0
  Zr  Zr38  1  0.16673067  0.66703200  0.24534583  1.0
  Zr  Zr39  1  0.50006400  0.00036533  0.24534583  1.0
  Zr  Zr40  1  0.50006400  0.33369867  0.24534583  1.0
  Zr  Zr41  1  0.50006400  0.66703200  0.24534583  1.0
  Zr  Zr42  1  0.83339733  0.00036533  0.24534583  1.0
  Zr  Zr43  1  0.83339733  0.33369867  0.24534583  1.0
  Zr  Zr44  1  0.83339733  0.66703200  0.24534583  1.0
  Zr  Zr45  1  0.06185533  0.22869100  0.30809850  1.0
  Zr  Zr46  1  0.06185533  0.56202433  0.30809850  1.0
  Zr  Zr47  1  0.06185533  0.89535767  0.30809850  1.0
  Zr  Zr48  1  0.39518867  0.22869100  0.30809850  1.0
  Zr  Zr49  1  0.39518867  0.56202433  0.30809850  1.0
  Zr  Zr50  1  0.39518867  0.89535767  0.30809850  1.0
  Zr  Zr51  1  0.72852200  0.22869100  0.30809850  1.0
  Zr  Zr52  1  0.72852200  0.56202433  0.30809850  1.0
  Zr  Zr53  1  0.72852200  0.89535767  0.30809850  1.0
  Zr  Zr54  1  0.08419767  0.08295600  0.22454083  1.0
  Zr  Zr55  1  0.08419767  0.41628933  0.22454083  1.0
  Zr  Zr56  1  0.08419767  0.74962267  0.22454083  1.0
  Zr  Zr57  1  0.41753100  0.08295600  0.22454083  1.0
  Zr  Zr58  1  0.41753100  0.41628933  0.22454083  1.0
  Zr  Zr59  1  0.41753100  0.74962267  0.22454083  1.0
  Zr  Zr60  1  0.75086433  0.08295600  0.22454083  1.0
  Zr  Zr61  1  0.75086433  0.41628933  0.22454083  1.0
  Zr  Zr62  1  0.75086433  0.74962267  0.22454083  1.0
  Zr  Zr63  1  0.16660267  0.33296800  0.03954517  1.0
  Zr  Zr64  1  0.16660267  0.66630133  0.03954517  1.0
  Zr  Zr65  1  0.16660267  0.99963467  0.03954517  1.0
  Zr  Zr66  1  0.49993600  0.33296800  0.03954517  1.0
  Zr  Zr67  1  0.49993600  0.66630133  0.03954517  1.0
  Zr  Zr68  1  0.49993600  0.99963467  0.03954517  1.0
  Zr  Zr69  1  0.83326933  0.33296800  0.03954517  1.0
  Zr  Zr70  1  0.83326933  0.66630133  0.03954517  1.0
  Zr  Zr71  1  0.83326933  0.99963467  0.03954517  1.0
  Zr  Zr72  1  0.25086433  0.08371067  0.06035017  1.0
  Zr  Zr73  1  0.25086433  0.41704400  0.06035017  1.0
  Zr  Zr74  1  0.25086433  0.75037733  0.06035017  1.0
  Zr  Zr75  1  0.58419767  0.08371067  0.06035017  1.0
  Zr  Zr76  1  0.58419767  0.41704400  0.06035017  1.0
  Zr  Zr77  1  0.58419767  0.75037733  0.06035017  1.0
  Zr  Zr78  1  0.91753100  0.08371067  0.06035017  1.0
  Zr  Zr79  1  0.91753100  0.41704400  0.06035017  1.0
  Zr  Zr80  1  0.91753100  0.75037733  0.06035017  1.0
  Zr  Zr81  1  0.27147800  0.10464233  0.31012583  1.0
  Zr  Zr82  1  0.27147800  0.43797567  0.31012583  1.0
  Zr  Zr83  1  0.27147800  0.77130900  0.31012583  1.0
  Zr  Zr84  1  0.60481133  0.10464233  0.31012583  1.0
  Zr  Zr85  1  0.60481133  0.43797567  0.31012583  1.0
  Zr  Zr86  1  0.60481133  0.77130900  0.31012583  1.0
  Zr  Zr87  1  0.93814467  0.10464233  0.31012583  1.0
  Zr  Zr88  1  0.93814467  0.43797567  0.31012583  1.0
  Zr  Zr89  1  0.93814467  0.77130900  0.31012583  1.0
  Zr  Zr90  1  0.22852200  0.22869100  0.14345917  1.0
  Zr  Zr91  1  0.22852200  0.56202433  0.14345917  1.0
  Zr  Zr92  1  0.22852200  0.89535767  0.14345917  1.0
  Zr  Zr93  1  0.56185533  0.22869100  0.14345917  1.0
  Zr  Zr94  1  0.56185533  0.56202433  0.14345917  1.0
  Zr  Zr95  1  0.56185533  0.89535767  0.14345917  1.0
  Zr  Zr96  1  0.89518867  0.22869100  0.14345917  1.0
  Zr  Zr97  1  0.89518867  0.56202433  0.14345917  1.0
  Zr  Zr98  1  0.89518867  0.89535767  0.14345917  1.0
  Zr  Zr99  1  0.16673067  0.16630133  0.07867917  1.0
  Zr  Zr100  1  0.16673067  0.49963467  0.07867917  1.0
  Zr  Zr101  1  0.16673067  0.83296800  0.07867917  1.0
  Zr  Zr102  1  0.50006400  0.16630133  0.07867917  1.0
  Zr  Zr103  1  0.50006400  0.49963467  0.07867917  1.0
  Zr  Zr104  1  0.50006400  0.83296800  0.07867917  1.0
  Zr  Zr105  1  0.83339733  0.16630133  0.07867917  1.0
  Zr  Zr106  1  0.83339733  0.49963467  0.07867917  1.0
  Zr  Zr107  1  0.83339733  0.83296800  0.07867917  1.0
  Zr  Zr108  1  0.22852200  0.27130900  0.31012583  1.0
  Zr  Zr109  1  0.22852200  0.60464233  0.31012583  1.0
  Zr  Zr110  1  0.22852200  0.93797567  0.31012583  1.0
  Zr  Zr111  1  0.56185533  0.27130900  0.31012583  1.0
  Zr  Zr112  1  0.56185533  0.60464233  0.31012583  1.0
  Zr  Zr113  1  0.56185533  0.93797567  0.31012583  1.0
  Zr  Zr114  1  0.89518867  0.27130900  0.31012583  1.0
  Zr  Zr115  1  0.89518867  0.60464233  0.31012583  1.0
  Zr  Zr116  1  0.89518867  0.93797567  0.31012583  1.0
  Zr  Zr117  1  0.27147800  0.06202433  0.14345917  1.0
  Zr  Zr118  1  0.27147800  0.39535767  0.14345917  1.0
  Zr  Zr119  1  0.27147800  0.72869100  0.14345917  1.0
  Zr  Zr120  1  0.60481133  0.06202433  0.14345917  1.0
  Zr  Zr121  1  0.60481133  0.39535767  0.14345917  1.0
  Zr  Zr122  1  0.60481133  0.72869100  0.14345917  1.0
  Zr  Zr123  1  0.93814467  0.06202433  0.14345917  1.0
  Zr  Zr124  1  0.93814467  0.39535767  0.14345917  1.0
  Zr  Zr125  1  0.93814467  0.72869100  0.14345917  1.0
  Zr  Zr126  1  0.33326933  0.16703200  0.24534583  1.0
  Zr  Zr127  1  0.33326933  0.50036533  0.24534583  1.0
  Zr  Zr128  1  0.33326933  0.83369867  0.24534583  1.0
  Zr  Zr129  1  0.66660267  0.16703200  0.24534583  1.0
  Zr  Zr130  1  0.66660267  0.50036533  0.24534583  1.0
  Zr  Zr131  1  0.66660267  0.83369867  0.24534583  1.0
  Zr  Zr132  1  0.99993600  0.16703200  0.24534583  1.0
  Zr  Zr133  1  0.99993600  0.50036533  0.24534583  1.0
  Zr  Zr134  1  0.99993600  0.83369867  0.24534583  1.0
  Zr  Zr135  1  0.10481133  0.06202433  0.30809850  1.0
  Zr  Zr136  1  0.10481133  0.39535767  0.30809850  1.0
  Zr  Zr137  1  0.10481133  0.72869100  0.30809850  1.0
  Zr  Zr138  1  0.43814467  0.06202433  0.30809850  1.0
  Zr  Zr139  1  0.43814467  0.39535767  0.30809850  1.0
  Zr  Zr140  1  0.43814467  0.72869100  0.30809850  1.0
  Zr  Zr141  1  0.77147800  0.06202433  0.30809850  1.0
  Zr  Zr142  1  0.77147800  0.39535767  0.30809850  1.0
  Zr  Zr143  1  0.77147800  0.72869100  0.30809850  1.0
  Zr  Zr144  1  0.00000000  0.00000000  0.30911217  1.0
  Zr  Zr145  1  0.00000000  0.33333333  0.30911217  1.0
  Zr  Zr146  1  0.00000000  0.66666667  0.30911217  1.0
  Zr  Zr147  1  0.33333333  0.00000000  0.30911217  1.0
  Zr  Zr148  1  0.33333333  0.33333333  0.30911217  1.0
  Zr  Zr149  1  0.33333333  0.66666667  0.30911217  1.0
  Zr  Zr150  1  0.66666667  0.00000000  0.30911217  1.0
  Zr  Zr151  1  0.66666667  0.33333333  0.30911217  1.0
  Zr  Zr152  1  0.66666667  0.66666667  0.30911217  1.0
  Zr  Zr153  1  0.08246900  0.24962267  0.22454083  1.0
  Zr  Zr154  1  0.08246900  0.58295600  0.22454083  1.0
  Zr  Zr155  1  0.08246900  0.91628933  0.22454083  1.0
  Zr  Zr156  1  0.41580233  0.24962267  0.22454083  1.0
  Zr  Zr157  1  0.41580233  0.58295600  0.22454083  1.0
  Zr  Zr158  1  0.41580233  0.91628933  0.22454083  1.0
  Zr  Zr159  1  0.74913567  0.24962267  0.22454083  1.0
  Zr  Zr160  1  0.74913567  0.58295600  0.22454083  1.0
  Zr  Zr161  1  0.74913567  0.91628933  0.22454083  1.0
  Zr  Zr162  1  0.08246900  0.25037733  0.05787417  1.0
  Zr  Zr163  1  0.08246900  0.58371067  0.05787417  1.0
  Zr  Zr164  1  0.08246900  0.91704400  0.05787417  1.0
  Zr  Zr165  1  0.41580233  0.25037733  0.05787417  1.0
  Zr  Zr166  1  0.41580233  0.58371067  0.05787417  1.0
  Zr  Zr167  1  0.41580233  0.91704400  0.05787417  1.0
  Zr  Zr168  1  0.74913567  0.25037733  0.05787417  1.0
  Zr  Zr169  1  0.74913567  0.58371067  0.05787417  1.0
  Zr  Zr170  1  0.74913567  0.91704400  0.05787417  1.0
  Zr  Zr171  1  0.25086433  0.08295600  0.22701683  1.0
  Zr  Zr172  1  0.25086433  0.41628933  0.22701683  1.0
  Zr  Zr173  1  0.25086433  0.74962267  0.22701683  1.0
  Zr  Zr174  1  0.58419767  0.08295600  0.22701683  1.0
  Zr  Zr175  1  0.58419767  0.41628933  0.22701683  1.0
  Zr  Zr176  1  0.58419767  0.74962267  0.22701683  1.0
  Zr  Zr177  1  0.91753100  0.08295600  0.22701683  1.0
  Zr  Zr178  1  0.91753100  0.41628933  0.22701683  1.0
  Zr  Zr179  1  0.91753100  0.74962267  0.22701683  1.0
  Zr  Zr180  1  0.33326933  0.33296800  0.07867917  1.0
  Zr  Zr181  1  0.33326933  0.66630133  0.07867917  1.0
  Zr  Zr182  1  0.33326933  0.99963467  0.07867917  1.0
  Zr  Zr183  1  0.66660267  0.33296800  0.07867917  1.0
  Zr  Zr184  1  0.66660267  0.66630133  0.07867917  1.0
  Zr  Zr185  1  0.66660267  0.99963467  0.07867917  1.0
  Zr  Zr186  1  0.99993600  0.33296800  0.07867917  1.0
  Zr  Zr187  1  0.99993600  0.66630133  0.07867917  1.0
  Zr  Zr188  1  0.99993600  0.99963467  0.07867917  1.0
  Zr  Zr189  1  0.16666667  0.00000000  0.14244550  1.0
  Zr  Zr190  1  0.16666667  0.33333333  0.14244550  1.0
  Zr  Zr191  1  0.16666667  0.66666667  0.14244550  1.0
  Zr  Zr192  1  0.50000000  0.00000000  0.14244550  1.0
  Zr  Zr193  1  0.50000000  0.33333333  0.14244550  1.0
  Zr  Zr194  1  0.50000000  0.66666667  0.14244550  1.0
  Zr  Zr195  1  0.83333333  0.00000000  0.14244550  1.0
  Zr  Zr196  1  0.83333333  0.33333333  0.14244550  1.0
  Zr  Zr197  1  0.83333333  0.66666667  0.14244550  1.0
  Zr  Zr198  1  0.24913567  0.24962267  0.22701683  1.0
  Zr  Zr199  1  0.24913567  0.58295600  0.22701683  1.0
  Zr  Zr200  1  0.24913567  0.91628933  0.22701683  1.0
  Zr  Zr201  1  0.58246900  0.24962267  0.22701683  1.0
  Zr  Zr202  1  0.58246900  0.58295600  0.22701683  1.0
  Zr  Zr203  1  0.58246900  0.91628933  0.22701683  1.0
  Zr  Zr204  1  0.91580233  0.24962267  0.22701683  1.0
  Zr  Zr205  1  0.91580233  0.58295600  0.22701683  1.0
  Zr  Zr206  1  0.91580233  0.91628933  0.22701683  1.0
  Zr  Zr207  1  0.24913567  0.25037733  0.06035017  1.0
  Zr  Zr208  1  0.24913567  0.58371067  0.06035017  1.0
  Zr  Zr209  1  0.24913567  0.91704400  0.06035017  1.0
  Zr  Zr210  1  0.58246900  0.25037733  0.06035017  1.0
  Zr  Zr211  1  0.58246900  0.58371067  0.06035017  1.0
  Zr  Zr212  1  0.58246900  0.91704400  0.06035017  1.0
  Zr  Zr213  1  0.91580233  0.25037733  0.06035017  1.0
  Zr  Zr214  1  0.91580233  0.58371067  0.06035017  1.0
  Zr  Zr215  1  0.91580233  0.91704400  0.06035017  1.0
  Zr  Zr216  1  0.08419767  0.08371067  0.05787417  1.0
  Zr  Zr217  1  0.08419767  0.41704400  0.05787417  1.0
  Zr  Zr218  1  0.08419767  0.75037733  0.05787417  1.0
  Zr  Zr219  1  0.41753100  0.08371067  0.05787417  1.0
  Zr  Zr220  1  0.41753100  0.41704400  0.05787417  1.0
  Zr  Zr221  1  0.41753100  0.75037733  0.05787417  1.0
  Zr  Zr222  1  0.75086433  0.08371067  0.05787417  1.0
  Zr  Zr223  1  0.75086433  0.41704400  0.05787417  1.0
  Zr  Zr224  1  0.75086433  0.75037733  0.05787417  1.0
  Zr  Zr225  1  0.00006400  0.00036533  0.20621183  1.0
  Zr  Zr226  1  0.00006400  0.33369867  0.20621183  1.0
  Zr  Zr227  1  0.00006400  0.66703200  0.20621183  1.0
  Zr  Zr228  1  0.33339733  0.00036533  0.20621183  1.0
  Zr  Zr229  1  0.33339733  0.33369867  0.20621183  1.0
  Zr  Zr230  1  0.33339733  0.66703200  0.20621183  1.0
  Zr  Zr231  1  0.66673067  0.00036533  0.20621183  1.0
  Zr  Zr232  1  0.66673067  0.33369867  0.20621183  1.0
  Zr  Zr233  1  0.66673067  0.66703200  0.20621183  1.0
  Zr  Zr234  1  0.16666667  0.16666667  0.30911217  1.0
  Zr  Zr235  1  0.16666667  0.50000000  0.30911217  1.0
  Zr  Zr236  1  0.16666667  0.83333333  0.30911217  1.0
  Zr  Zr237  1  0.50000000  0.16666667  0.30911217  1.0
  Zr  Zr238  1  0.50000000  0.50000000  0.30911217  1.0
  Zr  Zr239  1  0.50000000  0.83333333  0.30911217  1.0
  Zr  Zr240  1  0.83333333  0.16666667  0.30911217  1.0
  Zr  Zr241  1  0.83333333  0.50000000  0.30911217  1.0
  Zr  Zr242  1  0.83333333  0.83333333  0.30911217  1.0
  Zr  Zr243  1  0.00006400  0.16630133  0.03954517  1.0
  Zr  Zr244  1  0.00006400  0.49963467  0.03954517  1.0
  Zr  Zr245  1  0.00006400  0.83296800  0.03954517  1.0
  Zr  Zr246  1  0.33339733  0.16630133  0.03954517  1.0
  Zr  Zr247  1  0.33339733  0.49963467  0.03954517  1.0
  Zr  Zr248  1  0.33339733  0.83296800  0.03954517  1.0
  Zr  Zr249  1  0.66673067  0.16630133  0.03954517  1.0
  Zr  Zr250  1  0.66673067  0.49963467  0.03954517  1.0
  Zr  Zr251  1  0.66673067  0.83296800  0.03954517  1.0
  Ni  Ni252  1  0.16482600  0.26453167  0.19158850  1.0
  Ni  Ni253  1  0.16482600  0.59786500  0.19158850  1.0
  Ni  Ni254  1  0.16482600  0.93119833  0.19158850  1.0
  Ni  Ni255  1  0.49815933  0.26453167  0.19158850  1.0
  Ni  Ni256  1  0.49815933  0.59786500  0.19158850  1.0
  Ni  Ni257  1  0.49815933  0.93119833  0.19158850  1.0
  Ni  Ni258  1  0.83149267  0.26453167  0.19158850  1.0
  Ni  Ni259  1  0.83149267  0.59786500  0.19158850  1.0
  Ni  Ni260  1  0.83149267  0.93119833  0.19158850  1.0
  Ni  Ni261  1  0.20213933  0.03504433  0.30852283  1.0
  Ni  Ni262  1  0.20213933  0.36837767  0.30852283  1.0
  Ni  Ni263  1  0.20213933  0.70171100  0.30852283  1.0
  Ni  Ni264  1  0.53547267  0.03504433  0.30852283  1.0
  Ni  Ni265  1  0.53547267  0.36837767  0.30852283  1.0
  Ni  Ni266  1  0.53547267  0.70171100  0.30852283  1.0
  Ni  Ni267  1  0.86880600  0.03504433  0.30852283  1.0
  Ni  Ni268  1  0.86880600  0.36837767  0.30852283  1.0
  Ni  Ni269  1  0.86880600  0.70171100  0.30852283  1.0
  Ni  Ni270  1  0.20213933  0.13162233  0.14185617  1.0
  Ni  Ni271  1  0.20213933  0.46495567  0.14185617  1.0
  Ni  Ni272  1  0.20213933  0.79828900  0.14185617  1.0
  Ni  Ni273  1  0.53547267  0.13162233  0.14185617  1.0
  Ni  Ni274  1  0.53547267  0.46495567  0.14185617  1.0
  Ni  Ni275  1  0.53547267  0.79828900  0.14185617  1.0
  Ni  Ni276  1  0.86880600  0.13162233  0.14185617  1.0
  Ni  Ni277  1  0.86880600  0.46495567  0.14185617  1.0
  Ni  Ni278  1  0.86880600  0.79828900  0.14185617  1.0
  Ni  Ni279  1  0.32886533  0.23607400  0.19029850  1.0
  Ni  Ni280  1  0.32886533  0.56940733  0.19029850  1.0
  Ni  Ni281  1  0.32886533  0.90274067  0.19029850  1.0
  Ni  Ni282  1  0.66219867  0.23607400  0.19029850  1.0
  Ni  Ni283  1  0.66219867  0.56940733  0.19029850  1.0
  Ni  Ni284  1  0.66219867  0.90274067  0.19029850  1.0
  Ni  Ni285  1  0.99553200  0.23607400  0.19029850  1.0
  Ni  Ni286  1  0.99553200  0.56940733  0.19029850  1.0
  Ni  Ni287  1  0.99553200  0.90274067  0.19029850  1.0
  Ni  Ni288  1  0.00446800  0.06940733  0.26125917  1.0
  Ni  Ni289  1  0.00446800  0.40274067  0.26125917  1.0
  Ni  Ni290  1  0.00446800  0.73607400  0.26125917  1.0
  Ni  Ni291  1  0.33780133  0.06940733  0.26125917  1.0
  Ni  Ni292  1  0.33780133  0.40274067  0.26125917  1.0
  Ni  Ni293  1  0.33780133  0.73607400  0.26125917  1.0
  Ni  Ni294  1  0.67113467  0.06940733  0.26125917  1.0
  Ni  Ni295  1  0.67113467  0.40274067  0.26125917  1.0
  Ni  Ni296  1  0.67113467  0.73607400  0.26125917  1.0
  Ni  Ni297  1  0.26345967  0.16414600  0.19133283  1.0
  Ni  Ni298  1  0.26345967  0.49747933  0.19133283  1.0
  Ni  Ni299  1  0.26345967  0.83081267  0.19133283  1.0
  Ni  Ni300  1  0.59679300  0.16414600  0.19133283  1.0
  Ni  Ni301  1  0.59679300  0.49747933  0.19133283  1.0
  Ni  Ni302  1  0.59679300  0.83081267  0.19133283  1.0
  Ni  Ni303  1  0.93012633  0.16414600  0.19133283  1.0
  Ni  Ni304  1  0.93012633  0.49747933  0.19133283  1.0
  Ni  Ni305  1  0.93012633  0.83081267  0.19133283  1.0
  Ni  Ni306  1  0.03547267  0.03504433  0.14303483  1.0
  Ni  Ni307  1  0.03547267  0.36837767  0.14303483  1.0
  Ni  Ni308  1  0.03547267  0.70171100  0.14303483  1.0
  Ni  Ni309  1  0.36880600  0.03504433  0.14303483  1.0
  Ni  Ni310  1  0.36880600  0.36837767  0.14303483  1.0
  Ni  Ni311  1  0.36880600  0.70171100  0.14303483  1.0
  Ni  Ni312  1  0.70213933  0.03504433  0.14303483  1.0
  Ni  Ni313  1  0.70213933  0.36837767  0.14303483  1.0
  Ni  Ni314  1  0.70213933  0.70171100  0.14303483  1.0
  Ni  Ni315  1  0.33149267  0.26453167  0.25996917  1.0
  Ni  Ni316  1  0.33149267  0.59786500  0.25996917  1.0
  Ni  Ni317  1  0.33149267  0.93119833  0.25996917  1.0
  Ni  Ni318  1  0.66482600  0.26453167  0.25996917  1.0
  Ni  Ni319  1  0.66482600  0.59786500  0.25996917  1.0
  Ni  Ni320  1  0.66482600  0.93119833  0.25996917  1.0
  Ni  Ni321  1  0.99815933  0.26453167  0.25996917  1.0
  Ni  Ni322  1  0.99815933  0.59786500  0.25996917  1.0
  Ni  Ni323  1  0.99815933  0.93119833  0.25996917  1.0
  Ni  Ni324  1  0.29786067  0.20171100  0.30852283  1.0
  Ni  Ni325  1  0.29786067  0.53504433  0.30852283  1.0
  Ni  Ni326  1  0.29786067  0.86837767  0.30852283  1.0
  Ni  Ni327  1  0.63119400  0.20171100  0.30852283  1.0
  Ni  Ni328  1  0.63119400  0.53504433  0.30852283  1.0
  Ni  Ni329  1  0.63119400  0.86837767  0.30852283  1.0
  Ni  Ni330  1  0.96452733  0.20171100  0.30852283  1.0
  Ni  Ni331  1  0.96452733  0.53504433  0.30852283  1.0
  Ni  Ni332  1  0.96452733  0.86837767  0.30852283  1.0
  Ni  Ni333  1  0.26436700  0.00225267  0.26122550  1.0
  Ni  Ni334  1  0.26436700  0.33558600  0.26122550  1.0
  Ni  Ni335  1  0.26436700  0.66891933  0.26122550  1.0
  Ni  Ni336  1  0.59770033  0.00225267  0.26122550  1.0
  Ni  Ni337  1  0.59770033  0.33558600  0.26122550  1.0
  Ni  Ni338  1  0.59770033  0.66891933  0.26122550  1.0
  Ni  Ni339  1  0.93103367  0.00225267  0.26122550  1.0
  Ni  Ni340  1  0.93103367  0.33558600  0.26122550  1.0
  Ni  Ni341  1  0.93103367  0.66891933  0.26122550  1.0
  Ni  Ni342  1  0.06896633  0.16891933  0.19033217  1.0
  Ni  Ni343  1  0.06896633  0.50225267  0.19033217  1.0
  Ni  Ni344  1  0.06896633  0.83558600  0.19033217  1.0
  Ni  Ni345  1  0.40229967  0.16891933  0.19033217  1.0
  Ni  Ni346  1  0.40229967  0.50225267  0.19033217  1.0
  Ni  Ni347  1  0.40229967  0.83558600  0.19033217  1.0
  Ni  Ni348  1  0.73563300  0.16891933  0.19033217  1.0
  Ni  Ni349  1  0.73563300  0.50225267  0.19033217  1.0
  Ni  Ni350  1  0.73563300  0.83558600  0.19033217  1.0
  Ni  Ni351  1  0.17113467  0.06940733  0.19029850  1.0
  Ni  Ni352  1  0.17113467  0.40274067  0.19029850  1.0
  Ni  Ni353  1  0.17113467  0.73607400  0.19029850  1.0
  Ni  Ni354  1  0.50446800  0.06940733  0.19029850  1.0
  Ni  Ni355  1  0.50446800  0.40274067  0.19029850  1.0
  Ni  Ni356  1  0.50446800  0.73607400  0.19029850  1.0
  Ni  Ni357  1  0.83780133  0.06940733  0.19029850  1.0
  Ni  Ni358  1  0.83780133  0.40274067  0.19029850  1.0
  Ni  Ni359  1  0.83780133  0.73607400  0.19029850  1.0
  Ni  Ni360  1  0.03547267  0.13162233  0.30970150  1.0
  Ni  Ni361  1  0.03547267  0.46495567  0.30970150  1.0
  Ni  Ni362  1  0.03547267  0.79828900  0.30970150  1.0
  Ni  Ni363  1  0.36880600  0.13162233  0.30970150  1.0
  Ni  Ni364  1  0.36880600  0.46495567  0.30970150  1.0
  Ni  Ni365  1  0.36880600  0.79828900  0.30970150  1.0
  Ni  Ni366  1  0.70213933  0.13162233  0.30970150  1.0
  Ni  Ni367  1  0.70213933  0.46495567  0.30970150  1.0
  Ni  Ni368  1  0.70213933  0.79828900  0.30970150  1.0
  Ni  Ni369  1  0.32886533  0.26392600  0.02363183  1.0
  Ni  Ni370  1  0.32886533  0.59725933  0.02363183  1.0
  Ni  Ni371  1  0.32886533  0.93059267  0.02363183  1.0
  Ni  Ni372  1  0.66219867  0.26392600  0.02363183  1.0
  Ni  Ni373  1  0.66219867  0.59725933  0.02363183  1.0
  Ni  Ni374  1  0.66219867  0.93059267  0.02363183  1.0
  Ni  Ni375  1  0.99553200  0.26392600  0.02363183  1.0
  Ni  Ni376  1  0.99553200  0.59725933  0.02363183  1.0
  Ni  Ni377  1  0.99553200  0.93059267  0.02363183  1.0
  Ni  Ni378  1  0.00184067  0.09786500  0.19158850  1.0
  Ni  Ni379  1  0.00184067  0.43119833  0.19158850  1.0
  Ni  Ni380  1  0.00184067  0.76453167  0.19158850  1.0
  Ni  Ni381  1  0.33517400  0.09786500  0.19158850  1.0
  Ni  Ni382  1  0.33517400  0.43119833  0.19158850  1.0
  Ni  Ni383  1  0.33517400  0.76453167  0.19158850  1.0
  Ni  Ni384  1  0.66850733  0.09786500  0.19158850  1.0
  Ni  Ni385  1  0.66850733  0.43119833  0.19158850  1.0
  Ni  Ni386  1  0.66850733  0.76453167  0.19158850  1.0
  Ni  Ni387  1  0.09679300  0.00252067  0.09355817  1.0
  Ni  Ni388  1  0.09679300  0.33585400  0.09355817  1.0
  Ni  Ni389  1  0.09679300  0.66918733  0.09355817  1.0
  Ni  Ni390  1  0.43012633  0.00252067  0.09355817  1.0
  Ni  Ni391  1  0.43012633  0.33585400  0.09355817  1.0
  Ni  Ni392  1  0.43012633  0.66918733  0.09355817  1.0
  Ni  Ni393  1  0.76345967  0.00252067  0.09355817  1.0
  Ni  Ni394  1  0.76345967  0.33585400  0.09355817  1.0
  Ni  Ni395  1  0.76345967  0.66918733  0.09355817  1.0
  Ni  Ni396  1  0.09679300  0.16414600  0.26022483  1.0
  Ni  Ni397  1  0.09679300  0.49747933  0.26022483  1.0
  Ni  Ni398  1  0.09679300  0.83081267  0.26022483  1.0
  Ni  Ni399  1  0.43012633  0.16414600  0.26022483  1.0
  Ni  Ni400  1  0.43012633  0.49747933  0.26022483  1.0
  Ni  Ni401  1  0.43012633  0.83081267  0.26022483  1.0
  Ni  Ni402  1  0.76345967  0.16414600  0.26022483  1.0
  Ni  Ni403  1  0.76345967  0.49747933  0.26022483  1.0
  Ni  Ni404  1  0.76345967  0.83081267  0.26022483  1.0
  Ni  Ni405  1  0.23563300  0.33108067  0.09455883  1.0
  Ni  Ni406  1  0.23563300  0.66441400  0.09455883  1.0
  Ni  Ni407  1  0.23563300  0.99774733  0.09455883  1.0
  Ni  Ni408  1  0.56896633  0.33108067  0.09455883  1.0
  Ni  Ni409  1  0.56896633  0.66441400  0.09455883  1.0
  Ni  Ni410  1  0.56896633  0.99774733  0.09455883  1.0
  Ni  Ni411  1  0.90229967  0.33108067  0.09455883  1.0
  Ni  Ni412  1  0.90229967  0.66441400  0.09455883  1.0
  Ni  Ni413  1  0.90229967  0.99774733  0.09455883  1.0
  Ni  Ni414  1  0.16219867  0.26392600  0.09459250  1.0
  Ni  Ni415  1  0.16219867  0.59725933  0.09459250  1.0
  Ni  Ni416  1  0.16219867  0.93059267  0.09459250  1.0
  Ni  Ni417  1  0.49553200  0.26392600  0.09459250  1.0
  Ni  Ni418  1  0.49553200  0.59725933  0.09459250  1.0
  Ni  Ni419  1  0.49553200  0.93059267  0.09459250  1.0
  Ni  Ni420  1  0.82886533  0.26392600  0.09459250  1.0
  Ni  Ni421  1  0.82886533  0.59725933  0.09459250  1.0
  Ni  Ni422  1  0.82886533  0.93059267  0.09459250  1.0
  Ni  Ni423  1  0.00184067  0.06880167  0.02492183  1.0
  Ni  Ni424  1  0.00184067  0.40213500  0.02492183  1.0
  Ni  Ni425  1  0.00184067  0.73546833  0.02492183  1.0
  Ni  Ni426  1  0.33517400  0.06880167  0.02492183  1.0
  Ni  Ni427  1  0.33517400  0.40213500  0.02492183  1.0
  Ni  Ni428  1  0.33517400  0.73546833  0.02492183  1.0
  Ni  Ni429  1  0.66850733  0.06880167  0.02492183  1.0
  Ni  Ni430  1  0.66850733  0.40213500  0.02492183  1.0
  Ni  Ni431  1  0.66850733  0.73546833  0.02492183  1.0
  Ni  Ni432  1  0.16219867  0.23607400  0.26125917  1.0
  Ni  Ni433  1  0.16219867  0.56940733  0.26125917  1.0
  Ni  Ni434  1  0.16219867  0.90274067  0.26125917  1.0
  Ni  Ni435  1  0.49553200  0.23607400  0.26125917  1.0
  Ni  Ni436  1  0.49553200  0.56940733  0.26125917  1.0
  Ni  Ni437  1  0.49553200  0.90274067  0.26125917  1.0
  Ni  Ni438  1  0.82886533  0.23607400  0.26125917  1.0
  Ni  Ni439  1  0.82886533  0.56940733  0.26125917  1.0
  Ni  Ni440  1  0.82886533  0.90274067  0.26125917  1.0
  Ni  Ni441  1  0.23654033  0.33081267  0.19133283  1.0
  Ni  Ni442  1  0.23654033  0.66414600  0.19133283  1.0
  Ni  Ni443  1  0.23654033  0.99747933  0.19133283  1.0
  Ni  Ni444  1  0.56987367  0.33081267  0.19133283  1.0
  Ni  Ni445  1  0.56987367  0.66414600  0.19133283  1.0
  Ni  Ni446  1  0.56987367  0.99747933  0.19133283  1.0
  Ni  Ni447  1  0.90320700  0.33081267  0.19133283  1.0
  Ni  Ni448  1  0.90320700  0.66414600  0.19133283  1.0
  Ni  Ni449  1  0.90320700  0.99747933  0.19133283  1.0
  Ni  Ni450  1  0.16850733  0.09786500  0.25996917  1.0
  Ni  Ni451  1  0.16850733  0.43119833  0.25996917  1.0
  Ni  Ni452  1  0.16850733  0.76453167  0.25996917  1.0
  Ni  Ni453  1  0.50184067  0.09786500  0.25996917  1.0
  Ni  Ni454  1  0.50184067  0.43119833  0.25996917  1.0
  Ni  Ni455  1  0.50184067  0.76453167  0.25996917  1.0
  Ni  Ni456  1  0.83517400  0.09786500  0.25996917  1.0
  Ni  Ni457  1  0.83517400  0.43119833  0.25996917  1.0
  Ni  Ni458  1  0.83517400  0.76453167  0.25996917  1.0
  Ni  Ni459  1  0.13119400  0.29828900  0.30970150  1.0
  Ni  Ni460  1  0.13119400  0.63162233  0.30970150  1.0
  Ni  Ni461  1  0.13119400  0.96495567  0.30970150  1.0
  Ni  Ni462  1  0.46452733  0.29828900  0.30970150  1.0
  Ni  Ni463  1  0.46452733  0.63162233  0.30970150  1.0
  Ni  Ni464  1  0.46452733  0.96495567  0.30970150  1.0
  Ni  Ni465  1  0.79786067  0.29828900  0.30970150  1.0
  Ni  Ni466  1  0.79786067  0.63162233  0.30970150  1.0
  Ni  Ni467  1  0.79786067  0.96495567  0.30970150  1.0
  Ni  Ni468  1  0.09770033  0.16441400  0.02366550  1.0
  Ni  Ni469  1  0.09770033  0.49774733  0.02366550  1.0
  Ni  Ni470  1  0.09770033  0.83108067  0.02366550  1.0
  Ni  Ni471  1  0.43103367  0.16441400  0.02366550  1.0
  Ni  Ni472  1  0.43103367  0.49774733  0.02366550  1.0
  Ni  Ni473  1  0.43103367  0.83108067  0.02366550  1.0
  Ni  Ni474  1  0.76436700  0.16441400  0.02366550  1.0
  Ni  Ni475  1  0.76436700  0.49774733  0.02366550  1.0
  Ni  Ni476  1  0.76436700  0.83108067  0.02366550  1.0
  Ni  Ni477  1  0.23563300  0.16891933  0.26122550  1.0
  Ni  Ni478  1  0.23563300  0.50225267  0.26122550  1.0
  Ni  Ni479  1  0.23563300  0.83558600  0.26122550  1.0
  Ni  Ni480  1  0.56896633  0.16891933  0.26122550  1.0
  Ni  Ni481  1  0.56896633  0.50225267  0.26122550  1.0
  Ni  Ni482  1  0.56896633  0.83558600  0.26122550  1.0
  Ni  Ni483  1  0.90229967  0.16891933  0.26122550  1.0
  Ni  Ni484  1  0.90229967  0.50225267  0.26122550  1.0
  Ni  Ni485  1  0.90229967  0.83558600  0.26122550  1.0
  Ni  Ni486  1  0.16850733  0.06880167  0.09330250  1.0
  Ni  Ni487  1  0.16850733  0.40213500  0.09330250  1.0
  Ni  Ni488  1  0.16850733  0.73546833  0.09330250  1.0
  Ni  Ni489  1  0.50184067  0.06880167  0.09330250  1.0
  Ni  Ni490  1  0.50184067  0.40213500  0.09330250  1.0
  Ni  Ni491  1  0.50184067  0.73546833  0.09330250  1.0
  Ni  Ni492  1  0.83517400  0.06880167  0.09330250  1.0
  Ni  Ni493  1  0.83517400  0.40213500  0.09330250  1.0
  Ni  Ni494  1  0.83517400  0.73546833  0.09330250  1.0
  Ni  Ni495  1  0.09770033  0.00225267  0.19033217  1.0
  Ni  Ni496  1  0.09770033  0.33558600  0.19033217  1.0
  Ni  Ni497  1  0.09770033  0.66891933  0.19033217  1.0
  Ni  Ni498  1  0.43103367  0.00225267  0.19033217  1.0
  Ni  Ni499  1  0.43103367  0.33558600  0.19033217  1.0
  Ni  Ni500  1  0.43103367  0.66891933  0.19033217  1.0
  Ni  Ni501  1  0.76436700  0.00225267  0.19033217  1.0
  Ni  Ni502  1  0.76436700  0.33558600  0.19033217  1.0
  Ni  Ni503  1  0.76436700  0.66891933  0.19033217  1.0
  Ni  Ni504  1  0.26436700  0.16441400  0.09455883  1.0
  Ni  Ni505  1  0.26436700  0.49774733  0.09455883  1.0
  Ni  Ni506  1  0.26436700  0.83108067  0.09455883  1.0
  Ni  Ni507  1  0.59770033  0.16441400  0.09455883  1.0
  Ni  Ni508  1  0.59770033  0.49774733  0.09455883  1.0
  Ni  Ni509  1  0.59770033  0.83108067  0.09455883  1.0
  Ni  Ni510  1  0.93103367  0.16441400  0.09455883  1.0
  Ni  Ni511  1  0.93103367  0.49774733  0.09455883  1.0
  Ni  Ni512  1  0.93103367  0.83108067  0.09455883  1.0
  Ni  Ni513  1  0.06896633  0.33108067  0.02366550  1.0
  Ni  Ni514  1  0.06896633  0.66441400  0.02366550  1.0
  Ni  Ni515  1  0.06896633  0.99774733  0.02366550  1.0
  Ni  Ni516  1  0.40229967  0.33108067  0.02366550  1.0
  Ni  Ni517  1  0.40229967  0.66441400  0.02366550  1.0
  Ni  Ni518  1  0.40229967  0.99774733  0.02366550  1.0
  Ni  Ni519  1  0.73563300  0.33108067  0.02366550  1.0
  Ni  Ni520  1  0.73563300  0.66441400  0.02366550  1.0
  Ni  Ni521  1  0.73563300  0.99774733  0.02366550  1.0
  Ni  Ni522  1  0.23654033  0.16918733  0.02466617  1.0
  Ni  Ni523  1  0.23654033  0.50252067  0.02466617  1.0
  Ni  Ni524  1  0.23654033  0.83585400  0.02466617  1.0
  Ni  Ni525  1  0.56987367  0.16918733  0.02466617  1.0
  Ni  Ni526  1  0.56987367  0.50252067  0.02466617  1.0
  Ni  Ni527  1  0.56987367  0.83585400  0.02466617  1.0
  Ni  Ni528  1  0.90320700  0.16918733  0.02466617  1.0
  Ni  Ni529  1  0.90320700  0.50252067  0.02466617  1.0
  Ni  Ni530  1  0.90320700  0.83585400  0.02466617  1.0
  Ni  Ni531  1  0.16482600  0.23546833  0.02492183  1.0
  Ni  Ni532  1  0.16482600  0.56880167  0.02492183  1.0
  Ni  Ni533  1  0.16482600  0.90213500  0.02492183  1.0
  Ni  Ni534  1  0.49815933  0.23546833  0.02492183  1.0
  Ni  Ni535  1  0.49815933  0.56880167  0.02492183  1.0
  Ni  Ni536  1  0.49815933  0.90213500  0.02492183  1.0
  Ni  Ni537  1  0.83149267  0.23546833  0.02492183  1.0
  Ni  Ni538  1  0.83149267  0.56880167  0.02492183  1.0
  Ni  Ni539  1  0.83149267  0.90213500  0.02492183  1.0
  Ni  Ni540  1  0.06987367  0.16918733  0.09355817  1.0
  Ni  Ni541  1  0.06987367  0.50252067  0.09355817  1.0
  Ni  Ni542  1  0.06987367  0.83585400  0.09355817  1.0
  Ni  Ni543  1  0.40320700  0.16918733  0.09355817  1.0
  Ni  Ni544  1  0.40320700  0.50252067  0.09355817  1.0
  Ni  Ni545  1  0.40320700  0.83585400  0.09355817  1.0
  Ni  Ni546  1  0.73654033  0.16918733  0.09355817  1.0
  Ni  Ni547  1  0.73654033  0.50252067  0.09355817  1.0
  Ni  Ni548  1  0.73654033  0.83585400  0.09355817  1.0
  Ni  Ni549  1  0.33149267  0.23546833  0.09330250  1.0
  Ni  Ni550  1  0.33149267  0.56880167  0.09330250  1.0
  Ni  Ni551  1  0.33149267  0.90213500  0.09330250  1.0
  Ni  Ni552  1  0.66482600  0.23546833  0.09330250  1.0
  Ni  Ni553  1  0.66482600  0.56880167  0.09330250  1.0
  Ni  Ni554  1  0.66482600  0.90213500  0.09330250  1.0
  Ni  Ni555  1  0.99815933  0.23546833  0.09330250  1.0
  Ni  Ni556  1  0.99815933  0.56880167  0.09330250  1.0
  Ni  Ni557  1  0.99815933  0.90213500  0.09330250  1.0
  Ni  Ni558  1  0.00446800  0.09725933  0.09459250  1.0
  Ni  Ni559  1  0.00446800  0.43059267  0.09459250  1.0
  Ni  Ni560  1  0.00446800  0.76392600  0.09459250  1.0
  Ni  Ni561  1  0.33780133  0.09725933  0.09459250  1.0
  Ni  Ni562  1  0.33780133  0.43059267  0.09459250  1.0
  Ni  Ni563  1  0.33780133  0.76392600  0.09459250  1.0
  Ni  Ni564  1  0.67113467  0.09725933  0.09459250  1.0
  Ni  Ni565  1  0.67113467  0.43059267  0.09459250  1.0
  Ni  Ni566  1  0.67113467  0.76392600  0.09459250  1.0
  Ni  Ni567  1  0.13119400  0.20171100  0.14303483  1.0
  Ni  Ni568  1  0.13119400  0.53504433  0.14303483  1.0
  Ni  Ni569  1  0.13119400  0.86837767  0.14303483  1.0
  Ni  Ni570  1  0.46452733  0.20171100  0.14303483  1.0
  Ni  Ni571  1  0.46452733  0.53504433  0.14303483  1.0
  Ni  Ni572  1  0.46452733  0.86837767  0.14303483  1.0
  Ni  Ni573  1  0.79786067  0.20171100  0.14303483  1.0
  Ni  Ni574  1  0.79786067  0.53504433  0.14303483  1.0
  Ni  Ni575  1  0.79786067  0.86837767  0.14303483  1.0
  Ni  Ni576  1  0.29786067  0.29828900  0.14185617  1.0
  Ni  Ni577  1  0.29786067  0.63162233  0.14185617  1.0
  Ni  Ni578  1  0.29786067  0.96495567  0.14185617  1.0
  Ni  Ni579  1  0.63119400  0.29828900  0.14185617  1.0
  Ni  Ni580  1  0.63119400  0.63162233  0.14185617  1.0
  Ni  Ni581  1  0.63119400  0.96495567  0.14185617  1.0
  Ni  Ni582  1  0.96452733  0.29828900  0.14185617  1.0
  Ni  Ni583  1  0.96452733  0.63162233  0.14185617  1.0
  Ni  Ni584  1  0.96452733  0.96495567  0.14185617  1.0
  Ni  Ni585  1  0.06987367  0.33081267  0.26022483  1.0
  Ni  Ni586  1  0.06987367  0.66414600  0.26022483  1.0
  Ni  Ni587  1  0.06987367  0.99747933  0.26022483  1.0
  Ni  Ni588  1  0.40320700  0.33081267  0.26022483  1.0
  Ni  Ni589  1  0.40320700  0.66414600  0.26022483  1.0
  Ni  Ni590  1  0.40320700  0.99747933  0.26022483  1.0
  Ni  Ni591  1  0.73654033  0.33081267  0.26022483  1.0
  Ni  Ni592  1  0.73654033  0.66414600  0.26022483  1.0
  Ni  Ni593  1  0.73654033  0.99747933  0.26022483  1.0
  Ni  Ni594  1  0.26345967  0.00252067  0.02466617  1.0
  Ni  Ni595  1  0.26345967  0.33585400  0.02466617  1.0
  Ni  Ni596  1  0.26345967  0.66918733  0.02466617  1.0
  Ni  Ni597  1  0.59679300  0.00252067  0.02466617  1.0
  Ni  Ni598  1  0.59679300  0.33585400  0.02466617  1.0
  Ni  Ni599  1  0.59679300  0.66918733  0.02466617  1.0
  Ni  Ni600  1  0.93012633  0.00252067  0.02466617  1.0
  Ni  Ni601  1  0.93012633  0.33585400  0.02466617  1.0
  Ni  Ni602  1  0.93012633  0.66918733  0.02466617  1.0
  Ni  Ni603  1  0.17113467  0.09725933  0.02363183  1.0
  Ni  Ni604  1  0.17113467  0.43059267  0.02363183  1.0
  Ni  Ni605  1  0.17113467  0.76392600  0.02363183  1.0
  Ni  Ni606  1  0.50446800  0.09725933  0.02363183  1.0
  Ni  Ni607  1  0.50446800  0.43059267  0.02363183  1.0
  Ni  Ni608  1  0.50446800  0.76392600  0.02363183  1.0
  Ni  Ni609  1  0.83780133  0.09725933  0.02363183  1.0
  Ni  Ni610  1  0.83780133  0.43059267  0.02363183  1.0
  Ni  Ni611  1  0.83780133  0.76392600  0.02363183  1.0
