# generated using pymatgen
data_Zr8Ni21
_symmetry_space_group_name_H-M   'P 1'
_cell_length_a   19.35357300
_cell_length_b   25.70039778
_cell_length_c   32.32793776
_cell_angle_alpha   75.35020407
_cell_angle_beta   75.32519466
_cell_angle_gamma   68.02581060
_symmetry_Int_Tables_number   1
_chemical_formula_structural   Zr8Ni21
_chemical_formula_sum   'Zr144 Ni378'
_cell_volume   14199.33427303
_cell_formula_units_Z   18
loop_
 _symmetry_equiv_pos_site_id
 _symmetry_equiv_pos_as_xyz
  1  'x, y, z'
loop_
 _atom_site_type_symbol
 _atom_site_label
 _atom_site_symmetry_multiplicity
 _atom_site_fract_x
 _atom_site_fract_y
 _atom_site_fract_z
 _atom_site_occupancy
  Zr  Zr0  1  0.18899233  0.08248933  0.00470650  1.0
  Zr  Zr1  1  0.18899233  0.41582267  0.00470650  1.0
  Zr  Zr2  1  0.18899233  0.74915600  0.00470650  1.0
  Zr  Zr3  1  0.52232567  0.08248933  0.00470650  1.0
  Zr  Zr4  1  0.52232567  0.41582267  0.00470650  1.0
  Zr  Zr5  1  0.52232567  0.74915600  0.00470650  1.0
  Zr  Zr6  1  0.85565900  0.08248933  0.00470650  1.0
  Zr  Zr7  1  0.85565900  0.41582267  0.00470650  1.0
  Zr  Zr8  1  0.85565900  0.74915600  0.00470650  1.0
  Zr  Zr9  1  0.14434100  0.25084400  0.23588050  1.0
  Zr  Zr10  1  0.14434100  0.58417733  0.23588050  1.0
  Zr  Zr11  1  0.14434100  0.91751067  0.23588050  1.0
  Zr  Zr12  1  0.47767433  0.25084400  0.23588050  1.0
  Zr  Zr13  1  0.47767433  0.58417733  0.23588050  1.0
  Zr  Zr14  1  0.47767433  0.91751067  0.23588050  1.0
  Zr  Zr15  1  0.81100767  0.25084400  0.23588050  1.0
  Zr  Zr16  1  0.81100767  0.58417733  0.23588050  1.0
  Zr  Zr17  1  0.81100767  0.91751067  0.23588050  1.0
  Zr  Zr18  1  0.08245533  0.20243200  0.13522100  1.0
  Zr  Zr19  1  0.08245533  0.53576533  0.13522100  1.0
  Zr  Zr20  1  0.08245533  0.86909867  0.13522100  1.0
  Zr  Zr21  1  0.41578867  0.20243200  0.13522100  1.0
  Zr  Zr22  1  0.41578867  0.53576533  0.13522100  1.0
  Zr  Zr23  1  0.41578867  0.86909867  0.13522100  1.0
  Zr  Zr24  1  0.74912200  0.20243200  0.13522100  1.0
  Zr  Zr25  1  0.74912200  0.53576533  0.13522100  1.0
  Zr  Zr26  1  0.74912200  0.86909867  0.13522100  1.0
  Zr  Zr27  1  0.25087800  0.13090133  0.10536600  1.0
  Zr  Zr28  1  0.25087800  0.46423467  0.10536600  1.0
  Zr  Zr29  1  0.25087800  0.79756800  0.10536600  1.0
  Zr  Zr30  1  0.58421133  0.13090133  0.10536600  1.0
  Zr  Zr31  1  0.58421133  0.46423467  0.10536600  1.0
  Zr  Zr32  1  0.58421133  0.79756800  0.10536600  1.0
  Zr  Zr33  1  0.91754467  0.13090133  0.10536600  1.0
  Zr  Zr34  1  0.91754467  0.46423467  0.10536600  1.0
  Zr  Zr35  1  0.91754467  0.79756800  0.10536600  1.0
  Zr  Zr36  1  0.08278000  0.01127167  0.10442950  1.0
  Zr  Zr37  1  0.08278000  0.34460500  0.10442950  1.0
  Zr  Zr38  1  0.08278000  0.67793833  0.10442950  1.0
  Zr  Zr39  1  0.41611333  0.01127167  0.10442950  1.0
  Zr  Zr40  1  0.41611333  0.34460500  0.10442950  1.0
  Zr  Zr41  1  0.41611333  0.67793833  0.10442950  1.0
  Zr  Zr42  1  0.74944667  0.01127167  0.10442950  1.0
  Zr  Zr43  1  0.74944667  0.34460500  0.10442950  1.0
  Zr  Zr44  1  0.74944667  0.67793833  0.10442950  1.0
  Zr  Zr45  1  0.25055333  0.32206167  0.13615750  1.0
  Zr  Zr46  1  0.25055333  0.65539500  0.13615750  1.0
  Zr  Zr47  1  0.25055333  0.98872833  0.13615750  1.0
  Zr  Zr48  1  0.58388667  0.32206167  0.13615750  1.0
  Zr  Zr49  1  0.58388667  0.65539500  0.13615750  1.0
  Zr  Zr50  1  0.58388667  0.98872833  0.13615750  1.0
  Zr  Zr51  1  0.91722000  0.32206167  0.13615750  1.0
  Zr  Zr52  1  0.91722000  0.65539500  0.13615750  1.0
  Zr  Zr53  1  0.91722000  0.98872833  0.13615750  1.0
  Zr  Zr54  1  0.02312667  0.10482500  0.22140300  1.0
  Zr  Zr55  1  0.02312667  0.43815833  0.22140300  1.0
  Zr  Zr56  1  0.02312667  0.77149167  0.22140300  1.0
  Zr  Zr57  1  0.35646000  0.10482500  0.22140300  1.0
  Zr  Zr58  1  0.35646000  0.43815833  0.22140300  1.0
  Zr  Zr59  1  0.35646000  0.77149167  0.22140300  1.0
  Zr  Zr60  1  0.68979333  0.10482500  0.22140300  1.0
  Zr  Zr61  1  0.68979333  0.43815833  0.22140300  1.0
  Zr  Zr62  1  0.68979333  0.77149167  0.22140300  1.0
  Zr  Zr63  1  0.31020667  0.22850833  0.01918400  1.0
  Zr  Zr64  1  0.31020667  0.56184167  0.01918400  1.0
  Zr  Zr65  1  0.31020667  0.89517500  0.01918400  1.0
  Zr  Zr66  1  0.64354000  0.22850833  0.01918400  1.0
  Zr  Zr67  1  0.64354000  0.56184167  0.01918400  1.0
  Zr  Zr68  1  0.64354000  0.89517500  0.01918400  1.0
  Zr  Zr69  1  0.97687333  0.22850833  0.01918400  1.0
  Zr  Zr70  1  0.97687333  0.56184167  0.01918400  1.0
  Zr  Zr71  1  0.97687333  0.89517500  0.01918400  1.0
  Ni  Ni72  1  0.00000000  0.00000000  0.24529350  1.0
  Ni  Ni73  1  0.00000000  0.33333333  0.24529350  1.0
  Ni  Ni74  1  0.00000000  0.66666667  0.24529350  1.0
  Ni  Ni75  1  0.33333333  0.00000000  0.24529350  1.0
  Ni  Ni76  1  0.33333333  0.33333333  0.24529350  1.0
  Ni  Ni77  1  0.33333333  0.66666667  0.24529350  1.0
  Ni  Ni78  1  0.66666667  0.00000000  0.24529350  1.0
  Ni  Ni79  1  0.66666667  0.33333333  0.24529350  1.0
  Ni  Ni80  1  0.66666667  0.66666667  0.24529350  1.0
  Ni  Ni81  1  0.30066167  0.05082867  0.05543750  1.0
  Ni  Ni82  1  0.30066167  0.38416200  0.05543750  1.0
  Ni  Ni83  1  0.30066167  0.71749533  0.05543750  1.0
  Ni  Ni84  1  0.63399500  0.05082867  0.05543750  1.0
  Ni  Ni85  1  0.63399500  0.38416200  0.05543750  1.0
  Ni  Ni86  1  0.63399500  0.71749533  0.05543750  1.0
  Ni  Ni87  1  0.96732833  0.05082867  0.05543750  1.0
  Ni  Ni88  1  0.96732833  0.38416200  0.05543750  1.0
  Ni  Ni89  1  0.96732833  0.71749533  0.05543750  1.0
  Ni  Ni90  1  0.03267167  0.28250467  0.18514950  1.0
  Ni  Ni91  1  0.03267167  0.61583800  0.18514950  1.0
  Ni  Ni92  1  0.03267167  0.94917133  0.18514950  1.0
  Ni  Ni93  1  0.36600500  0.28250467  0.18514950  1.0
  Ni  Ni94  1  0.36600500  0.61583800  0.18514950  1.0
  Ni  Ni95  1  0.36600500  0.94917133  0.18514950  1.0
  Ni  Ni96  1  0.69933833  0.28250467  0.18514950  1.0
  Ni  Ni97  1  0.69933833  0.61583800  0.18514950  1.0
  Ni  Ni98  1  0.69933833  0.94917133  0.18514950  1.0
  Ni  Ni99  1  0.23777367  0.15674067  0.02395425  1.0
  Ni  Ni100  1  0.23777367  0.49007400  0.02395425  1.0
  Ni  Ni101  1  0.23777367  0.82340733  0.02395425  1.0
  Ni  Ni102  1  0.57110700  0.15674067  0.02395425  1.0
  Ni  Ni103  1  0.57110700  0.49007400  0.02395425  1.0
  Ni  Ni104  1  0.57110700  0.82340733  0.02395425  1.0
  Ni  Ni105  1  0.90444033  0.15674067  0.02395425  1.0
  Ni  Ni106  1  0.90444033  0.49007400  0.02395425  1.0
  Ni  Ni107  1  0.90444033  0.82340733  0.02395425  1.0
  Ni  Ni108  1  0.09555967  0.17659267  0.21663275  1.0
  Ni  Ni109  1  0.09555967  0.50992600  0.21663275  1.0
  Ni  Ni110  1  0.09555967  0.84325933  0.21663275  1.0
  Ni  Ni111  1  0.42889300  0.17659267  0.21663275  1.0
  Ni  Ni112  1  0.42889300  0.50992600  0.21663275  1.0
  Ni  Ni113  1  0.42889300  0.84325933  0.21663275  1.0
  Ni  Ni114  1  0.76222633  0.17659267  0.21663275  1.0
  Ni  Ni115  1  0.76222633  0.50992600  0.21663275  1.0
  Ni  Ni116  1  0.76222633  0.84325933  0.21663275  1.0
  Ni  Ni117  1  0.16157300  0.08144233  0.09096650  1.0
  Ni  Ni118  1  0.16157300  0.41477567  0.09096650  1.0
  Ni  Ni119  1  0.16157300  0.74810900  0.09096650  1.0
  Ni  Ni120  1  0.49490633  0.08144233  0.09096650  1.0
  Ni  Ni121  1  0.49490633  0.41477567  0.09096650  1.0
  Ni  Ni122  1  0.49490633  0.74810900  0.09096650  1.0
  Ni  Ni123  1  0.82823967  0.08144233  0.09096650  1.0
  Ni  Ni124  1  0.82823967  0.41477567  0.09096650  1.0
  Ni  Ni125  1  0.82823967  0.74810900  0.09096650  1.0
  Ni  Ni126  1  0.17176033  0.25189100  0.14962050  1.0
  Ni  Ni127  1  0.17176033  0.58522433  0.14962050  1.0
  Ni  Ni128  1  0.17176033  0.91855767  0.14962050  1.0
  Ni  Ni129  1  0.50509367  0.25189100  0.14962050  1.0
  Ni  Ni130  1  0.50509367  0.58522433  0.14962050  1.0
  Ni  Ni131  1  0.50509367  0.91855767  0.14962050  1.0
  Ni  Ni132  1  0.83842700  0.25189100  0.14962050  1.0
  Ni  Ni133  1  0.83842700  0.58522433  0.14962050  1.0
  Ni  Ni134  1  0.83842700  0.91855767  0.14962050  1.0
  Ni  Ni135  1  0.16157333  0.09142533  0.17224475  1.0
  Ni  Ni136  1  0.16157333  0.42475867  0.17224475  1.0
  Ni  Ni137  1  0.16157333  0.75809200  0.17224475  1.0
  Ni  Ni138  1  0.49490667  0.09142533  0.17224475  1.0
  Ni  Ni139  1  0.49490667  0.42475867  0.17224475  1.0
  Ni  Ni140  1  0.49490667  0.75809200  0.17224475  1.0
  Ni  Ni141  1  0.82824000  0.09142533  0.17224475  1.0
  Ni  Ni142  1  0.82824000  0.42475867  0.17224475  1.0
  Ni  Ni143  1  0.82824000  0.75809200  0.17224475  1.0
  Ni  Ni144  1  0.30025467  0.05138667  0.17535275  1.0
  Ni  Ni145  1  0.30025467  0.38472000  0.17535275  1.0
  Ni  Ni146  1  0.30025467  0.71805333  0.17535275  1.0
  Ni  Ni147  1  0.63358800  0.05138667  0.17535275  1.0
  Ni  Ni148  1  0.63358800  0.38472000  0.17535275  1.0
  Ni  Ni149  1  0.63358800  0.71805333  0.17535275  1.0
  Ni  Ni150  1  0.96692133  0.05138667  0.17535275  1.0
  Ni  Ni151  1  0.96692133  0.38472000  0.17535275  1.0
  Ni  Ni152  1  0.96692133  0.71805333  0.17535275  1.0
  Ni  Ni153  1  0.03307867  0.28194667  0.06523425  1.0
  Ni  Ni154  1  0.03307867  0.61528000  0.06523425  1.0
  Ni  Ni155  1  0.03307867  0.94861333  0.06523425  1.0
  Ni  Ni156  1  0.36641200  0.28194667  0.06523425  1.0
  Ni  Ni157  1  0.36641200  0.61528000  0.06523425  1.0
  Ni  Ni158  1  0.36641200  0.94861333  0.06523425  1.0
  Ni  Ni159  1  0.69974533  0.28194667  0.06523425  1.0
  Ni  Ni160  1  0.69974533  0.61528000  0.06523425  1.0
  Ni  Ni161  1  0.69974533  0.94861333  0.06523425  1.0
  Ni  Ni162  1  0.29362200  0.21715133  0.10649925  1.0
  Ni  Ni163  1  0.29362200  0.55048467  0.10649925  1.0
  Ni  Ni164  1  0.29362200  0.88381800  0.10649925  1.0
  Ni  Ni165  1  0.62695533  0.21715133  0.10649925  1.0
  Ni  Ni166  1  0.62695533  0.55048467  0.10649925  1.0
  Ni  Ni167  1  0.62695533  0.88381800  0.10649925  1.0
  Ni  Ni168  1  0.96028867  0.21715133  0.10649925  1.0
  Ni  Ni169  1  0.96028867  0.55048467  0.10649925  1.0
  Ni  Ni170  1  0.96028867  0.88381800  0.10649925  1.0
  Ni  Ni171  1  0.03971133  0.11618200  0.13408775  1.0
  Ni  Ni172  1  0.03971133  0.44951533  0.13408775  1.0
  Ni  Ni173  1  0.03971133  0.78284867  0.13408775  1.0
  Ni  Ni174  1  0.37304467  0.11618200  0.13408775  1.0
  Ni  Ni175  1  0.37304467  0.44951533  0.13408775  1.0
  Ni  Ni176  1  0.37304467  0.78284867  0.13408775  1.0
  Ni  Ni177  1  0.70637800  0.11618200  0.13408775  1.0
  Ni  Ni178  1  0.70637800  0.44951533  0.13408775  1.0
  Ni  Ni179  1  0.70637800  0.78284867  0.13408775  1.0
  Ni  Ni180  1  0.28791800  0.21919533  0.19211025  1.0
  Ni  Ni181  1  0.28791800  0.55252867  0.19211025  1.0
  Ni  Ni182  1  0.28791800  0.88586200  0.19211025  1.0
  Ni  Ni183  1  0.62125133  0.21919533  0.19211025  1.0
  Ni  Ni184  1  0.62125133  0.55252867  0.19211025  1.0
  Ni  Ni185  1  0.62125133  0.88586200  0.19211025  1.0
  Ni  Ni186  1  0.95458467  0.21919533  0.19211025  1.0
  Ni  Ni187  1  0.95458467  0.55252867  0.19211025  1.0
  Ni  Ni188  1  0.95458467  0.88586200  0.19211025  1.0
  Ni  Ni189  1  0.04541533  0.11413800  0.04847675  1.0
  Ni  Ni190  1  0.04541533  0.44747133  0.04847675  1.0
  Ni  Ni191  1  0.04541533  0.78080467  0.04847675  1.0
  Ni  Ni192  1  0.37874867  0.11413800  0.04847675  1.0
  Ni  Ni193  1  0.37874867  0.44747133  0.04847675  1.0
  Ni  Ni194  1  0.37874867  0.78080467  0.04847675  1.0
  Ni  Ni195  1  0.71208200  0.11413800  0.04847675  1.0
  Ni  Ni196  1  0.71208200  0.44747133  0.04847675  1.0
  Ni  Ni197  1  0.71208200  0.78080467  0.04847675  1.0
  Ni  Ni198  1  0.23220300  0.15285933  0.18396725  1.0
  Ni  Ni199  1  0.23220300  0.48619267  0.18396725  1.0
  Ni  Ni200  1  0.23220300  0.81952600  0.18396725  1.0
  Ni  Ni201  1  0.56553633  0.15285933  0.18396725  1.0
  Ni  Ni202  1  0.56553633  0.48619267  0.18396725  1.0
  Ni  Ni203  1  0.56553633  0.81952600  0.18396725  1.0
  Ni  Ni204  1  0.89886967  0.15285933  0.18396725  1.0
  Ni  Ni205  1  0.89886967  0.48619267  0.18396725  1.0
  Ni  Ni206  1  0.89886967  0.81952600  0.18396725  1.0
  Ni  Ni207  1  0.10113033  0.18047400  0.05661975  1.0
  Ni  Ni208  1  0.10113033  0.51380733  0.05661975  1.0
  Ni  Ni209  1  0.10113033  0.84714067  0.05661975  1.0
  Ni  Ni210  1  0.43446367  0.18047400  0.05661975  1.0
  Ni  Ni211  1  0.43446367  0.51380733  0.05661975  1.0
  Ni  Ni212  1  0.43446367  0.84714067  0.05661975  1.0
  Ni  Ni213  1  0.76779700  0.18047400  0.05661975  1.0
  Ni  Ni214  1  0.76779700  0.51380733  0.05661975  1.0
  Ni  Ni215  1  0.76779700  0.84714067  0.05661975  1.0
  Ni  Ni216  1  0.22785700  0.32141467  0.22058050  1.0
  Ni  Ni217  1  0.22785700  0.65474800  0.22058050  1.0
  Ni  Ni218  1  0.22785700  0.98808133  0.22058050  1.0
  Ni  Ni219  1  0.56119033  0.32141467  0.22058050  1.0
  Ni  Ni220  1  0.56119033  0.65474800  0.22058050  1.0
  Ni  Ni221  1  0.56119033  0.98808133  0.22058050  1.0
  Ni  Ni222  1  0.89452367  0.32141467  0.22058050  1.0
  Ni  Ni223  1  0.89452367  0.65474800  0.22058050  1.0
  Ni  Ni224  1  0.89452367  0.98808133  0.22058050  1.0
  Ni  Ni225  1  0.10547633  0.01191867  0.02000650  1.0
  Ni  Ni226  1  0.10547633  0.34525200  0.02000650  1.0
  Ni  Ni227  1  0.10547633  0.67858533  0.02000650  1.0
  Ni  Ni228  1  0.43880967  0.01191867  0.02000650  1.0
  Ni  Ni229  1  0.43880967  0.34525200  0.02000650  1.0
  Ni  Ni230  1  0.43880967  0.67858533  0.02000650  1.0
  Ni  Ni231  1  0.77214300  0.01191867  0.02000650  1.0
  Ni  Ni232  1  0.77214300  0.34525200  0.02000650  1.0
  Ni  Ni233  1  0.77214300  0.67858533  0.02000650  1.0
  Ni  Ni234  1  0.22747633  0.31732100  0.05933350  1.0
  Ni  Ni235  1  0.22747633  0.65065433  0.05933350  1.0
  Ni  Ni236  1  0.22747633  0.98398767  0.05933350  1.0
  Ni  Ni237  1  0.56080967  0.31732100  0.05933350  1.0
  Ni  Ni238  1  0.56080967  0.65065433  0.05933350  1.0
  Ni  Ni239  1  0.56080967  0.98398767  0.05933350  1.0
  Ni  Ni240  1  0.89414300  0.31732100  0.05933350  1.0
  Ni  Ni241  1  0.89414300  0.65065433  0.05933350  1.0
  Ni  Ni242  1  0.89414300  0.98398767  0.05933350  1.0
  Ni  Ni243  1  0.10585700  0.01601233  0.18125350  1.0
  Ni  Ni244  1  0.10585700  0.34934567  0.18125350  1.0
  Ni  Ni245  1  0.10585700  0.68267900  0.18125350  1.0
  Ni  Ni246  1  0.43919033  0.01601233  0.18125350  1.0
  Ni  Ni247  1  0.43919033  0.34934567  0.18125350  1.0
  Ni  Ni248  1  0.43919033  0.68267900  0.18125350  1.0
  Ni  Ni249  1  0.77252367  0.01601233  0.18125350  1.0
  Ni  Ni250  1  0.77252367  0.34934567  0.18125350  1.0
  Ni  Ni251  1  0.77252367  0.68267900  0.18125350  1.0
  Ni  Ni252  1  0.17176000  0.24190800  0.06834225  1.0
  Ni  Ni253  1  0.17176000  0.57524133  0.06834225  1.0
  Ni  Ni254  1  0.17176000  0.90857467  0.06834225  1.0
  Ni  Ni255  1  0.50509333  0.24190800  0.06834225  1.0
  Ni  Ni256  1  0.50509333  0.57524133  0.06834225  1.0
  Ni  Ni257  1  0.50509333  0.90857467  0.06834225  1.0
  Ni  Ni258  1  0.83842667  0.24190800  0.06834225  1.0
  Ni  Ni259  1  0.83842667  0.57524133  0.06834225  1.0
  Ni  Ni260  1  0.83842667  0.90857467  0.06834225  1.0
  Zr  Zr261  1  0.18899233  0.08248933  0.25470650  1.0
  Zr  Zr262  1  0.18899233  0.41582267  0.25470650  1.0
  Zr  Zr263  1  0.18899233  0.74915600  0.25470650  1.0
  Zr  Zr264  1  0.52232567  0.08248933  0.25470650  1.0
  Zr  Zr265  1  0.52232567  0.41582267  0.25470650  1.0
  Zr  Zr266  1  0.52232567  0.74915600  0.25470650  1.0
  Zr  Zr267  1  0.85565900  0.08248933  0.25470650  1.0
  Zr  Zr268  1  0.85565900  0.41582267  0.25470650  1.0
  Zr  Zr269  1  0.85565900  0.74915600  0.25470650  1.0
  Zr  Zr270  1  0.14434100  0.25084400  0.48588050  1.0
  Zr  Zr271  1  0.14434100  0.58417733  0.48588050  1.0
  Zr  Zr272  1  0.14434100  0.91751067  0.48588050  1.0
  Zr  Zr273  1  0.47767433  0.25084400  0.48588050  1.0
  Zr  Zr274  1  0.47767433  0.58417733  0.48588050  1.0
  Zr  Zr275  1  0.47767433  0.91751067  0.48588050  1.0
  Zr  Zr276  1  0.81100767  0.25084400  0.48588050  1.0
  Zr  Zr277  1  0.81100767  0.58417733  0.48588050  1.0
  Zr  Zr278  1  0.81100767  0.91751067  0.48588050  1.0
  Zr  Zr279  1  0.08245533  0.20243200  0.38522100  1.0
  Zr  Zr280  1  0.08245533  0.53576533  0.38522100  1.0
  Zr  Zr281  1  0.08245533  0.86909867  0.38522100  1.0
  Zr  Zr282  1  0.41578867  0.20243200  0.38522100  1.0
  Zr  Zr283  1  0.41578867  0.53576533  0.38522100  1.0
  Zr  Zr284  1  0.41578867  0.86909867  0.38522100  1.0
  Zr  Zr285  1  0.74912200  0.20243200  0.38522100  1.0
  Zr  Zr286  1  0.74912200  0.53576533  0.38522100  1.0
  Zr  Zr287  1  0.74912200  0.86909867  0.38522100  1.0
  Zr  Zr288  1  0.25087800  0.13090133  0.35536600  1.0
  Zr  Zr289  1  0.25087800  0.46423467  0.35536600  1.0
  Zr  Zr290  1  0.25087800  0.79756800  0.35536600  1.0
  Zr  Zr291  1  0.58421133  0.13090133  0.35536600  1.0
  Zr  Zr292  1  0.58421133  0.46423467  0.35536600  1.0
  Zr  Zr293  1  0.58421133  0.79756800  0.35536600  1.0
  Zr  Zr294  1  0.91754467  0.13090133  0.35536600  1.0
  Zr  Zr295  1  0.91754467  0.46423467  0.35536600  1.0
  Zr  Zr296  1  0.91754467  0.79756800  0.35536600  1.0
  Zr  Zr297  1  0.08278000  0.01127167  0.35442950  1.0
  Zr  Zr298  1  0.08278000  0.34460500  0.35442950  1.0
  Zr  Zr299  1  0.08278000  0.67793833  0.35442950  1.0
  Zr  Zr300  1  0.41611333  0.01127167  0.35442950  1.0
  Zr  Zr301  1  0.41611333  0.34460500  0.35442950  1.0
  Zr  Zr302  1  0.41611333  0.67793833  0.35442950  1.0
  Zr  Zr303  1  0.74944667  0.01127167  0.35442950  1.0
  Zr  Zr304  1  0.74944667  0.34460500  0.35442950  1.0
  Zr  Zr305  1  0.74944667  0.67793833  0.35442950  1.0
  Zr  Zr306  1  0.25055333  0.32206167  0.38615750  1.0
  Zr  Zr307  1  0.25055333  0.65539500  0.38615750  1.0
  Zr  Zr308  1  0.25055333  0.98872833  0.38615750  1.0
  Zr  Zr309  1  0.58388667  0.32206167  0.38615750  1.0
  Zr  Zr310  1  0.58388667  0.65539500  0.38615750  1.0
  Zr  Zr311  1  0.58388667  0.98872833  0.38615750  1.0
  Zr  Zr312  1  0.91722000  0.32206167  0.38615750  1.0
  Zr  Zr313  1  0.91722000  0.65539500  0.38615750  1.0
  Zr  Zr314  1  0.91722000  0.98872833  0.38615750  1.0
  Zr  Zr315  1  0.02312667  0.10482500  0.47140300  1.0
  Zr  Zr316  1  0.02312667  0.43815833  0.47140300  1.0
  Zr  Zr317  1  0.02312667  0.77149167  0.47140300  1.0
  Zr  Zr318  1  0.35646000  0.10482500  0.47140300  1.0
  Zr  Zr319  1  0.35646000  0.43815833  0.47140300  1.0
  Zr  Zr320  1  0.35646000  0.77149167  0.47140300  1.0
  Zr  Zr321  1  0.68979333  0.10482500  0.47140300  1.0
  Zr  Zr322  1  0.68979333  0.43815833  0.47140300  1.0
  Zr  Zr323  1  0.68979333  0.77149167  0.47140300  1.0
  Zr  Zr324  1  0.31020667  0.22850833  0.26918400  1.0
  Zr  Zr325  1  0.31020667  0.56184167  0.26918400  1.0
  Zr  Zr326  1  0.31020667  0.89517500  0.26918400  1.0
  Zr  Zr327  1  0.64354000  0.22850833  0.26918400  1.0
  Zr  Zr328  1  0.64354000  0.56184167  0.26918400  1.0
  Zr  Zr329  1  0.64354000  0.89517500  0.26918400  1.0
  Zr  Zr330  1  0.97687333  0.22850833  0.26918400  1.0
  Zr  Zr331  1  0.97687333  0.56184167  0.26918400  1.0
  Zr  Zr332  1  0.97687333  0.89517500  0.26918400  1.0
  Ni  Ni333  1  0.00000000  0.00000000  0.49529350  1.0
  Ni  Ni334  1  0.00000000  0.33333333  0.49529350  1.0
  Ni  Ni335  1  0.00000000  0.66666667  0.49529350  1.0
  Ni  Ni336  1  0.33333333  0.00000000  0.49529350  1.0
  Ni  Ni337  1  0.33333333  0.33333333  0.49529350  1.0
  Ni  Ni338  1  0.33333333  0.66666667  0.49529350  1.0
  Ni  Ni339  1  0.66666667  0.00000000  0.49529350  1.0
  Ni  Ni340  1  0.66666667  0.33333333  0.49529350  1.0
  Ni  Ni341  1  0.66666667  0.66666667  0.49529350  1.0
  Ni  Ni342  1  0.30066167  0.05082867  0.30543750  1.0
  Ni  Ni343  1  0.30066167  0.38416200  0.30543750  1.0
  Ni  Ni344  1  0.30066167  0.71749533  0.30543750  1.0
  Ni  Ni345  1  0.63399500  0.05082867  0.30543750  1.0
  Ni  Ni346  1  0.63399500  0.38416200  0.30543750  1.0
  Ni  Ni347  1  0.63399500  0.71749533  0.30543750  1.0
  Ni  Ni348  1  0.96732833  0.05082867  0.30543750  1.0
  Ni  Ni349  1  0.96732833  0.38416200  0.30543750  1.0
  Ni  Ni350  1  0.96732833  0.71749533  0.30543750  1.0
  Ni  Ni351  1  0.03267167  0.28250467  0.43514950  1.0
  Ni  Ni352  1  0.03267167  0.61583800  0.43514950  1.0
  Ni  Ni353  1  0.03267167  0.94917133  0.43514950  1.0
  Ni  Ni354  1  0.36600500  0.28250467  0.43514950  1.0
  Ni  Ni355  1  0.36600500  0.61583800  0.43514950  1.0
  Ni  Ni356  1  0.36600500  0.94917133  0.43514950  1.0
  Ni  Ni357  1  0.69933833  0.28250467  0.43514950  1.0
  Ni  Ni358  1  0.69933833  0.61583800  0.43514950  1.0
  Ni  Ni359  1  0.69933833  0.94917133  0.43514950  1.0
  Ni  Ni360  1  0.23777367  0.15674067  0.27395425  1.0
  Ni  Ni361  1  0.23777367  0.49007400  0.27395425  1.0
  Ni  Ni362  1  0.23777367  0.82340733  0.27395425  1.0
  Ni  Ni363  1  0.57110700  0.15674067  0.27395425  1.0
  Ni  Ni364  1  0.57110700  0.49007400  0.27395425  1.0
  Ni  Ni365  1  0.57110700  0.82340733  0.27395425  1.0
  Ni  Ni366  1  0.90444033  0.15674067  0.27395425  1.0
  Ni  Ni367  1  0.90444033  0.49007400  0.27395425  1.0
  Ni  Ni368  1  0.90444033  0.82340733  0.27395425  1.0
  Ni  Ni369  1  0.09555967  0.17659267  0.46663275  1.0
  Ni  Ni370  1  0.09555967  0.50992600  0.46663275  1.0
  Ni  Ni371  1  0.09555967  0.84325933  0.46663275  1.0
  Ni  Ni372  1  0.42889300  0.17659267  0.46663275  1.0
  Ni  Ni373  1  0.42889300  0.50992600  0.46663275  1.0
  Ni  Ni374  1  0.42889300  0.84325933  0.46663275  1.0
  Ni  Ni375  1  0.76222633  0.17659267  0.46663275  1.0
  Ni  Ni376  1  0.76222633  0.50992600  0.46663275  1.0
  Ni  Ni377  1  0.76222633  0.84325933  0.46663275  1.0
  Ni  Ni378  1  0.16157300  0.08144233  0.34096650  1.0
  Ni  Ni379  1  0.16157300  0.41477567  0.34096650  1.0
  Ni  Ni380  1  0.16157300  0.74810900  0.34096650  1.0
  Ni  Ni381  1  0.49490633  0.08144233  0.34096650  1.0
  Ni  Ni382  1  0.49490633  0.41477567  0.34096650  1.0
  Ni  Ni383  1  0.49490633  0.74810900  0.34096650  1.0
  Ni  Ni384  1  0.82823967  0.08144233  0.34096650  1.0
  Ni  Ni385  1  0.82823967  0.41477567  0.34096650  1.0
  Ni  Ni386  1  0.82823967  0.74810900  0.34096650  1.0
  Ni  Ni387  1  0.17176033  0.25189100  0.39962050  1.0
  Ni  Ni388  1  0.17176033  0.58522433  0.39962050  1.0
  Ni  Ni389  1  0.17176033  0.91855767  0.39962050  1.0
  Ni  Ni390  1  0.50509367  0.25189100  0.39962050  1.0
  Ni  Ni391  1  0.50509367  0.58522433  0.39962050  1.0
  Ni  Ni392  1  0.50509367  0.91855767  0.39962050  1.0
  Ni  Ni393  1  0.83842700  0.25189100  0.39962050  1.0
  Ni  Ni394  1  0.83842700  0.58522433  0.39962050  1.0
  Ni  Ni395  1  0.83842700  0.91855767  0.39962050  1.0
  Ni  Ni396  1  0.16157333  0.09142533  0.42224475  1.0
  Ni  Ni397  1  0.16157333  0.42475867  0.42224475  1.0
  Ni  Ni398  1  0.16157333  0.75809200  0.42224475  1.0
  Ni  Ni399  1  0.49490667  0.09142533  0.42224475  1.0
  Ni  Ni400  1  0.49490667  0.42475867  0.42224475  1.0
  Ni  Ni401  1  0.49490667  0.75809200  0.42224475  1.0
  Ni  Ni402  1  0.82824000  0.09142533  0.42224475  1.0
  Ni  Ni403  1  0.82824000  0.42475867  0.42224475  1.0
  Ni  Ni404  1  0.82824000  0.75809200  0.42224475  1.0
  Ni  Ni405  1  0.30025467  0.05138667  0.42535275  1.0
  Ni  Ni406  1  0.30025467  0.38472000  0.42535275  1.0
  Ni  Ni407  1  0.30025467  0.71805333  0.42535275  1.0
  Ni  Ni408  1  0.63358800  0.05138667  0.42535275  1.0
  Ni  Ni409  1  0.63358800  0.38472000  0.42535275  1.0
  Ni  Ni410  1  0.63358800  0.71805333  0.42535275  1.0
  Ni  Ni411  1  0.96692133  0.05138667  0.42535275  1.0
  Ni  Ni412  1  0.96692133  0.38472000  0.42535275  1.0
  Ni  Ni413  1  0.96692133  0.71805333  0.42535275  1.0
  Ni  Ni414  1  0.03307867  0.28194667  0.31523425  1.0
  Ni  Ni415  1  0.03307867  0.61528000  0.31523425  1.0
  Ni  Ni416  1  0.03307867  0.94861333  0.31523425  1.0
  Ni  Ni417  1  0.36641200  0.28194667  0.31523425  1.0
  Ni  Ni418  1  0.36641200  0.61528000  0.31523425  1.0
  Ni  Ni419  1  0.36641200  0.94861333  0.31523425  1.0
  Ni  Ni420  1  0.69974533  0.28194667  0.31523425  1.0
  Ni  Ni421  1  0.69974533  0.61528000  0.31523425  1.0
  Ni  Ni422  1  0.69974533  0.94861333  0.31523425  1.0
  Ni  Ni423  1  0.29362200  0.21715133  0.35649925  1.0
  Ni  Ni424  1  0.29362200  0.55048467  0.35649925  1.0
  Ni  Ni425  1  0.29362200  0.88381800  0.35649925  1.0
  Ni  Ni426  1  0.62695533  0.21715133  0.35649925  1.0
  Ni  Ni427  1  0.62695533  0.55048467  0.35649925  1.0
  Ni  Ni428  1  0.62695533  0.88381800  0.35649925  1.0
  Ni  Ni429  1  0.96028867  0.21715133  0.35649925  1.0
  Ni  Ni430  1  0.96028867  0.55048467  0.35649925  1.0
  Ni  Ni431  1  0.96028867  0.88381800  0.35649925  1.0
  Ni  Ni432  1  0.03971133  0.11618200  0.38408775  1.0
  Ni  Ni433  1  0.03971133  0.44951533  0.38408775  1.0
  Ni  Ni434  1  0.03971133  0.78284867  0.38408775  1.0
  Ni  Ni435  1  0.37304467  0.11618200  0.38408775  1.0
  Ni  Ni436  1  0.37304467  0.44951533  0.38408775  1.0
  Ni  Ni437  1  0.37304467  0.78284867  0.38408775  1.0
  Ni  Ni438  1  0.70637800  0.11618200  0.38408775  1.0
  Ni  Ni439  1  0.70637800  0.44951533  0.38408775  1.0
  Ni  Ni440  1  0.70637800  0.78284867  0.38408775  1.0
  Ni  Ni441  1  0.28791800  0.21919533  0.44211025  1.0
  Ni  Ni442  1  0.28791800  0.55252867  0.44211025  1.0
  Ni  Ni443  1  0.28791800  0.88586200  0.44211025  1.0
  Ni  Ni444  1  0.62125133  0.21919533  0.44211025  1.0
  Ni  Ni445  1  0.62125133  0.55252867  0.44211025  1.0
  Ni  Ni446  1  0.62125133  0.88586200  0.44211025  1.0
  Ni  Ni447  1  0.95458467  0.21919533  0.44211025  1.0
  Ni  Ni448  1  0.95458467  0.55252867  0.44211025  1.0
  Ni  Ni449  1  0.95458467  0.88586200  0.44211025  1.0
  Ni  Ni450  1  0.04541533  0.11413800  0.29847675  1.0
  Ni  Ni451  1  0.04541533  0.44747133  0.29847675  1.0
  Ni  Ni452  1  0.04541533  0.78080467  0.29847675  1.0
  Ni  Ni453  1  0.37874867  0.11413800  0.29847675  1.0
  Ni  Ni454  1  0.37874867  0.44747133  0.29847675  1.0
  Ni  Ni455  1  0.37874867  0.78080467  0.29847675  1.0
  Ni  Ni456  1  0.71208200  0.11413800  0.29847675  1.0
  Ni  Ni457  1  0.71208200  0.44747133  0.29847675  1.0
  Ni  Ni458  1  0.71208200  0.78080467  0.29847675  1.0
  Ni  Ni459  1  0.23220300  0.15285933  0.43396725  1.0
  Ni  Ni460  1  0.23220300  0.48619267  0.43396725  1.0
  Ni  Ni461  1  0.23220300  0.81952600  0.43396725  1.0
  Ni  Ni462  1  0.56553633  0.15285933  0.43396725  1.0
  Ni  Ni463  1  0.56553633  0.48619267  0.43396725  1.0
  Ni  Ni464  1  0.56553633  0.81952600  0.43396725  1.0
  Ni  Ni465  1  0.89886967  0.15285933  0.43396725  1.0
  Ni  Ni466  1  0.89886967  0.48619267  0.43396725  1.0
  Ni  Ni467  1  0.89886967  0.81952600  0.43396725  1.0
  Ni  Ni468  1  0.10113033  0.18047400  0.30661975  1.0
  Ni  Ni469  1  0.10113033  0.51380733  0.30661975  1.0
  Ni  Ni470  1  0.10113033  0.84714067  0.30661975  1.0
  Ni  Ni471  1  0.43446367  0.18047400  0.30661975  1.0
  Ni  Ni472  1  0.43446367  0.51380733  0.30661975  1.0
  Ni  Ni473  1  0.43446367  0.84714067  0.30661975  1.0
  Ni  Ni474  1  0.76779700  0.18047400  0.30661975  1.0
  Ni  Ni475  1  0.76779700  0.51380733  0.30661975  1.0
  Ni  Ni476  1  0.76779700  0.84714067  0.30661975  1.0
  Ni  Ni477  1  0.22785700  0.32141467  0.47058050  1.0
  Ni  Ni478  1  0.22785700  0.65474800  0.47058050  1.0
  Ni  Ni479  1  0.22785700  0.98808133  0.47058050  1.0
  Ni  Ni480  1  0.56119033  0.32141467  0.47058050  1.0
  Ni  Ni481  1  0.56119033  0.65474800  0.47058050  1.0
  Ni  Ni482  1  0.56119033  0.98808133  0.47058050  1.0
  Ni  Ni483  1  0.89452367  0.32141467  0.47058050  1.0
  Ni  Ni484  1  0.89452367  0.65474800  0.47058050  1.0
  Ni  Ni485  1  0.89452367  0.98808133  0.47058050  1.0
  Ni  Ni486  1  0.10547633  0.01191867  0.27000650  1.0
  Ni  Ni487  1  0.10547633  0.34525200  0.27000650  1.0
  Ni  Ni488  1  0.10547633  0.67858533  0.27000650  1.0
  Ni  Ni489  1  0.43880967  0.01191867  0.27000650  1.0
  Ni  Ni490  1  0.43880967  0.34525200  0.27000650  1.0
  Ni  Ni491  1  0.43880967  0.67858533  0.27000650  1.0
  Ni  Ni492  1  0.77214300  0.01191867  0.27000650  1.0
  Ni  Ni493  1  0.77214300  0.34525200  0.27000650  1.0
  Ni  Ni494  1  0.77214300  0.67858533  0.27000650  1.0
  Ni  Ni495  1  0.22747633  0.31732100  0.30933350  1.0
  Ni  Ni496  1  0.22747633  0.65065433  0.30933350  1.0
  Ni  Ni497  1  0.22747633  0.98398767  0.30933350  1.0
  Ni  Ni498  1  0.56080967  0.31732100  0.30933350  1.0
  Ni  Ni499  1  0.56080967  0.65065433  0.30933350  1.0
  Ni  Ni500  1  0.56080967  0.98398767  0.30933350  1.0
  Ni  Ni501  1  0.89414300  0.31732100  0.30933350  1.0
  Ni  Ni502  1  0.89414300  0.65065433  0.30933350  1.0
  Ni  Ni503  1  0.89414300  0.98398767  0.30933350  1.0
  Ni  Ni504  1  0.10585700  0.01601233  0.43125350  1.0
  Ni  Ni505  1  0.10585700  0.34934567  0.43125350  1.0
  Ni  Ni506  1  0.10585700  0.68267900  0.43125350  1.0
  Ni  Ni507  1  0.43919033  0.01601233  0.43125350  1.0
  Ni  Ni508  1  0.43919033  0.34934567  0.43125350  1.0
  Ni  Ni509  1  0.43919033  0.68267900  0.43125350  1.0
  Ni  Ni510  1  0.77252367  0.01601233  0.43125350  1.0
  Ni  Ni511  1  0.77252367  0.34934567  0.43125350  1.0
  Ni  Ni512  1  0.77252367  0.68267900  0.43125350  1.0
  Ni  Ni513  1  0.17176000  0.24190800  0.31834225  1.0
  Ni  Ni514  1  0.17176000  0.57524133  0.31834225  1.0
  Ni  Ni515  1  0.17176000  0.90857467  0.31834225  1.0
  Ni  Ni516  1  0.50509333  0.24190800  0.31834225  1.0
  Ni  Ni517  1  0.50509333  0.57524133  0.31834225  1.0
  Ni  Ni518  1  0.50509333  0.90857467  0.31834225  1.0
  Ni  Ni519  1  0.83842667  0.24190800  0.31834225  1.0
  Ni  Ni520  1  0.83842667  0.57524133  0.31834225  1.0
  Ni  Ni521  1  0.83842667  0.90857467  0.31834225  1.0
