# generated using pymatgen
data_Zr8Ni21
_symmetry_space_group_name_H-M   'P 1'
_cell_length_a   24.24595332
_cell_length_b   25.70039778
_cell_length_c   32.25595500
_cell_angle_alpha   68.02581060
_cell_angle_beta   75.32519466
_cell_angle_gamma   75.35020407
_symmetry_Int_Tables_number   1
_chemical_formula_structural   Zr8Ni21
_chemical_formula_sum   'Zr144 Ni378'
_cell_volume   17749.16784129
_cell_formula_units_Z   18
loop_
 _symmetry_equiv_pos_site_id
 _symmetry_equiv_pos_as_xyz
  1  'x, y, z'
loop_
 _atom_site_type_symbol
 _atom_site_label
 _atom_site_symmetry_multiplicity
 _atom_site_fract_x
 _atom_site_fract_y
 _atom_site_fract_z
 _atom_site_occupancy
  Zr  Zr0  1  0.32078267  0.25084400  0.07966660  1.0
  Zr  Zr1  1  0.32078267  0.58417733  0.07966660  1.0
  Zr  Zr2  1  0.32078267  0.91751067  0.07966660  1.0
  Zr  Zr3  1  0.65411600  0.25084400  0.07966660  1.0
  Zr  Zr4  1  0.65411600  0.58417733  0.07966660  1.0
  Zr  Zr5  1  0.65411600  0.91751067  0.07966660  1.0
  Zr  Zr6  1  0.98744933  0.25084400  0.07966660  1.0
  Zr  Zr7  1  0.98744933  0.58417733  0.07966660  1.0
  Zr  Zr8  1  0.98744933  0.91751067  0.07966660  1.0
  Zr  Zr9  1  0.01255067  0.08248933  0.10645740  1.0
  Zr  Zr10  1  0.01255067  0.41582267  0.10645740  1.0
  Zr  Zr11  1  0.01255067  0.74915600  0.10645740  1.0
  Zr  Zr12  1  0.34588400  0.08248933  0.10645740  1.0
  Zr  Zr13  1  0.34588400  0.41582267  0.10645740  1.0
  Zr  Zr14  1  0.34588400  0.74915600  0.10645740  1.0
  Zr  Zr15  1  0.67921733  0.08248933  0.10645740  1.0
  Zr  Zr16  1  0.67921733  0.41582267  0.10645740  1.0
  Zr  Zr17  1  0.67921733  0.74915600  0.10645740  1.0
  Zr  Zr18  1  0.14676333  0.13090133  0.14358880  1.0
  Zr  Zr19  1  0.14676333  0.46423467  0.14358880  1.0
  Zr  Zr20  1  0.14676333  0.79756800  0.14358880  1.0
  Zr  Zr21  1  0.48009667  0.13090133  0.14358880  1.0
  Zr  Zr22  1  0.48009667  0.46423467  0.14358880  1.0
  Zr  Zr23  1  0.48009667  0.79756800  0.14358880  1.0
  Zr  Zr24  1  0.81343000  0.13090133  0.14358880  1.0
  Zr  Zr25  1  0.81343000  0.46423467  0.14358880  1.0
  Zr  Zr26  1  0.81343000  0.79756800  0.14358880  1.0
  Zr  Zr27  1  0.18657000  0.20243200  0.04253520  1.0
  Zr  Zr28  1  0.18657000  0.53576533  0.04253520  1.0
  Zr  Zr29  1  0.18657000  0.86909867  0.04253520  1.0
  Zr  Zr30  1  0.51990333  0.20243200  0.04253520  1.0
  Zr  Zr31  1  0.51990333  0.53576533  0.04253520  1.0
  Zr  Zr32  1  0.51990333  0.86909867  0.04253520  1.0
  Zr  Zr33  1  0.85323667  0.20243200  0.04253520  1.0
  Zr  Zr34  1  0.85323667  0.53576533  0.04253520  1.0
  Zr  Zr35  1  0.85323667  0.86909867  0.04253520  1.0
  Zr  Zr36  1  0.18781867  0.32206167  0.14339400  1.0
  Zr  Zr37  1  0.18781867  0.65539500  0.14339400  1.0
  Zr  Zr38  1  0.18781867  0.98872833  0.14339400  1.0
  Zr  Zr39  1  0.52115200  0.32206167  0.14339400  1.0
  Zr  Zr40  1  0.52115200  0.65539500  0.14339400  1.0
  Zr  Zr41  1  0.52115200  0.98872833  0.14339400  1.0
  Zr  Zr42  1  0.85448533  0.32206167  0.14339400  1.0
  Zr  Zr43  1  0.85448533  0.65539500  0.14339400  1.0
  Zr  Zr44  1  0.85448533  0.98872833  0.14339400  1.0
  Zr  Zr45  1  0.14551467  0.01127167  0.04273000  1.0
  Zr  Zr46  1  0.14551467  0.34460500  0.04273000  1.0
  Zr  Zr47  1  0.14551467  0.67793833  0.04273000  1.0
  Zr  Zr48  1  0.47884800  0.01127167  0.04273000  1.0
  Zr  Zr49  1  0.47884800  0.34460500  0.04273000  1.0
  Zr  Zr50  1  0.47884800  0.67793833  0.04273000  1.0
  Zr  Zr51  1  0.81218133  0.01127167  0.04273000  1.0
  Zr  Zr52  1  0.81218133  0.34460500  0.04273000  1.0
  Zr  Zr53  1  0.81218133  0.67793833  0.04273000  1.0
  Zr  Zr54  1  0.03185400  0.22850833  0.17918600  1.0
  Zr  Zr55  1  0.03185400  0.56184167  0.17918600  1.0
  Zr  Zr56  1  0.03185400  0.89517500  0.17918600  1.0
  Zr  Zr57  1  0.36518733  0.22850833  0.17918600  1.0
  Zr  Zr58  1  0.36518733  0.56184167  0.17918600  1.0
  Zr  Zr59  1  0.36518733  0.89517500  0.17918600  1.0
  Zr  Zr60  1  0.69852067  0.22850833  0.17918600  1.0
  Zr  Zr61  1  0.69852067  0.56184167  0.17918600  1.0
  Zr  Zr62  1  0.69852067  0.89517500  0.17918600  1.0
  Zr  Zr63  1  0.30147933  0.10482500  0.00693800  1.0
  Zr  Zr64  1  0.30147933  0.43815833  0.00693800  1.0
  Zr  Zr65  1  0.30147933  0.77149167  0.00693800  1.0
  Zr  Zr66  1  0.63481267  0.10482500  0.00693800  1.0
  Zr  Zr67  1  0.63481267  0.43815833  0.00693800  1.0
  Zr  Zr68  1  0.63481267  0.77149167  0.00693800  1.0
  Zr  Zr69  1  0.96814600  0.10482500  0.00693800  1.0
  Zr  Zr70  1  0.96814600  0.43815833  0.00693800  1.0
  Zr  Zr71  1  0.96814600  0.77149167  0.00693800  1.0
  Ni  Ni72  1  0.00000000  0.00000000  0.19306200  1.0
  Ni  Ni73  1  0.00000000  0.33333333  0.19306200  1.0
  Ni  Ni74  1  0.00000000  0.66666667  0.19306200  1.0
  Ni  Ni75  1  0.33333333  0.00000000  0.19306200  1.0
  Ni  Ni76  1  0.33333333  0.33333333  0.19306200  1.0
  Ni  Ni77  1  0.33333333  0.66666667  0.19306200  1.0
  Ni  Ni78  1  0.66666667  0.00000000  0.19306200  1.0
  Ni  Ni79  1  0.66666667  0.33333333  0.19306200  1.0
  Ni  Ni80  1  0.66666667  0.66666667  0.19306200  1.0
  Ni  Ni81  1  0.25314133  0.28250467  0.01266500  1.0
  Ni  Ni82  1  0.25314133  0.61583800  0.01266500  1.0
  Ni  Ni83  1  0.25314133  0.94917133  0.01266500  1.0
  Ni  Ni84  1  0.58647467  0.28250467  0.01266500  1.0
  Ni  Ni85  1  0.58647467  0.61583800  0.01266500  1.0
  Ni  Ni86  1  0.58647467  0.94917133  0.01266500  1.0
  Ni  Ni87  1  0.91980800  0.28250467  0.01266500  1.0
  Ni  Ni88  1  0.91980800  0.61583800  0.01266500  1.0
  Ni  Ni89  1  0.91980800  0.94917133  0.01266500  1.0
  Ni  Ni90  1  0.08019200  0.05082867  0.17345900  1.0
  Ni  Ni91  1  0.08019200  0.38416200  0.17345900  1.0
  Ni  Ni92  1  0.08019200  0.71749533  0.17345900  1.0
  Ni  Ni93  1  0.41352533  0.05082867  0.17345900  1.0
  Ni  Ni94  1  0.41352533  0.38416200  0.17345900  1.0
  Ni  Ni95  1  0.41352533  0.71749533  0.17345900  1.0
  Ni  Ni96  1  0.74685867  0.05082867  0.17345900  1.0
  Ni  Ni97  1  0.74685867  0.38416200  0.17345900  1.0
  Ni  Ni98  1  0.74685867  0.71749533  0.17345900  1.0
  Ni  Ni99  1  0.29511900  0.17659267  0.05039780  1.0
  Ni  Ni100  1  0.29511900  0.50992600  0.05039780  1.0
  Ni  Ni101  1  0.29511900  0.84325933  0.05039780  1.0
  Ni  Ni102  1  0.62845233  0.17659267  0.05039780  1.0
  Ni  Ni103  1  0.62845233  0.50992600  0.05039780  1.0
  Ni  Ni104  1  0.62845233  0.84325933  0.05039780  1.0
  Ni  Ni105  1  0.96178567  0.17659267  0.05039780  1.0
  Ni  Ni106  1  0.96178567  0.50992600  0.05039780  1.0
  Ni  Ni107  1  0.96178567  0.84325933  0.05039780  1.0
  Ni  Ni108  1  0.03821433  0.15674067  0.13572620  1.0
  Ni  Ni109  1  0.03821433  0.49007400  0.13572620  1.0
  Ni  Ni110  1  0.03821433  0.82340733  0.13572620  1.0
  Ni  Ni111  1  0.37154767  0.15674067  0.13572620  1.0
  Ni  Ni112  1  0.37154767  0.49007400  0.13572620  1.0
  Ni  Ni113  1  0.37154767  0.82340733  0.13572620  1.0
  Ni  Ni114  1  0.70488100  0.15674067  0.13572620  1.0
  Ni  Ni115  1  0.70488100  0.49007400  0.13572620  1.0
  Ni  Ni116  1  0.70488100  0.82340733  0.13572620  1.0
  Ni  Ni117  1  0.20576933  0.25189100  0.09611820  1.0
  Ni  Ni118  1  0.20576933  0.58522433  0.09611820  1.0
  Ni  Ni119  1  0.20576933  0.91855767  0.09611820  1.0
  Ni  Ni120  1  0.53910267  0.25189100  0.09611820  1.0
  Ni  Ni121  1  0.53910267  0.58522433  0.09611820  1.0
  Ni  Ni122  1  0.53910267  0.91855767  0.09611820  1.0
  Ni  Ni123  1  0.87243600  0.25189100  0.09611820  1.0
  Ni  Ni124  1  0.87243600  0.58522433  0.09611820  1.0
  Ni  Ni125  1  0.87243600  0.91855767  0.09611820  1.0
  Ni  Ni126  1  0.12756400  0.08144233  0.09000580  1.0
  Ni  Ni127  1  0.12756400  0.41477567  0.09000580  1.0
  Ni  Ni128  1  0.12756400  0.74810900  0.09000580  1.0
  Ni  Ni129  1  0.46089733  0.08144233  0.09000580  1.0
  Ni  Ni130  1  0.46089733  0.41477567  0.09000580  1.0
  Ni  Ni131  1  0.46089733  0.74810900  0.09000580  1.0
  Ni  Ni132  1  0.79423067  0.08144233  0.09000580  1.0
  Ni  Ni133  1  0.79423067  0.41477567  0.09000580  1.0
  Ni  Ni134  1  0.79423067  0.74810900  0.09000580  1.0
  Ni  Ni135  1  0.09739833  0.24190800  0.09611800  1.0
  Ni  Ni136  1  0.09739833  0.57524133  0.09611800  1.0
  Ni  Ni137  1  0.09739833  0.90857467  0.09611800  1.0
  Ni  Ni138  1  0.43073167  0.24190800  0.09611800  1.0
  Ni  Ni139  1  0.43073167  0.57524133  0.09611800  1.0
  Ni  Ni140  1  0.43073167  0.90857467  0.09611800  1.0
  Ni  Ni141  1  0.76406500  0.24190800  0.09611800  1.0
  Ni  Ni142  1  0.76406500  0.57524133  0.09611800  1.0
  Ni  Ni143  1  0.76406500  0.90857467  0.09611800  1.0
  Ni  Ni144  1  0.09325433  0.28194667  0.01290920  1.0
  Ni  Ni145  1  0.09325433  0.61528000  0.01290920  1.0
  Ni  Ni146  1  0.09325433  0.94861333  0.01290920  1.0
  Ni  Ni147  1  0.42658767  0.28194667  0.01290920  1.0
  Ni  Ni148  1  0.42658767  0.61528000  0.01290920  1.0
  Ni  Ni149  1  0.42658767  0.94861333  0.01290920  1.0
  Ni  Ni150  1  0.75992100  0.28194667  0.01290920  1.0
  Ni  Ni151  1  0.75992100  0.61528000  0.01290920  1.0
  Ni  Ni152  1  0.75992100  0.94861333  0.01290920  1.0
  Ni  Ni153  1  0.24007900  0.05138667  0.17321480  1.0
  Ni  Ni154  1  0.24007900  0.38472000  0.17321480  1.0
  Ni  Ni155  1  0.24007900  0.71805333  0.17321480  1.0
  Ni  Ni156  1  0.57341233  0.05138667  0.17321480  1.0
  Ni  Ni157  1  0.57341233  0.38472000  0.17321480  1.0
  Ni  Ni158  1  0.57341233  0.71805333  0.17321480  1.0
  Ni  Ni159  1  0.90674567  0.05138667  0.17321480  1.0
  Ni  Ni160  1  0.90674567  0.38472000  0.17321480  1.0
  Ni  Ni161  1  0.90674567  0.71805333  0.17321480  1.0
  Ni  Ni162  1  0.18505900  0.11618200  0.01688880  1.0
  Ni  Ni163  1  0.18505900  0.44951533  0.01688880  1.0
  Ni  Ni164  1  0.18505900  0.78284867  0.01688880  1.0
  Ni  Ni165  1  0.51839233  0.11618200  0.01688880  1.0
  Ni  Ni166  1  0.51839233  0.44951533  0.01688880  1.0
  Ni  Ni167  1  0.51839233  0.78284867  0.01688880  1.0
  Ni  Ni168  1  0.85172567  0.11618200  0.01688880  1.0
  Ni  Ni169  1  0.85172567  0.44951533  0.01688880  1.0
  Ni  Ni170  1  0.85172567  0.78284867  0.01688880  1.0
  Ni  Ni171  1  0.14827433  0.21715133  0.16923520  1.0
  Ni  Ni172  1  0.14827433  0.55048467  0.16923520  1.0
  Ni  Ni173  1  0.14827433  0.88381800  0.16923520  1.0
  Ni  Ni174  1  0.48160767  0.21715133  0.16923520  1.0
  Ni  Ni175  1  0.48160767  0.55048467  0.16923520  1.0
  Ni  Ni176  1  0.48160767  0.88381800  0.16923520  1.0
  Ni  Ni177  1  0.81494100  0.21715133  0.16923520  1.0
  Ni  Ni178  1  0.81494100  0.55048467  0.16923520  1.0
  Ni  Ni179  1  0.81494100  0.88381800  0.16923520  1.0
  Ni  Ni180  1  0.07091100  0.11413800  0.02031120  1.0
  Ni  Ni181  1  0.07091100  0.44747133  0.02031120  1.0
  Ni  Ni182  1  0.07091100  0.78080467  0.02031120  1.0
  Ni  Ni183  1  0.40424433  0.11413800  0.02031120  1.0
  Ni  Ni184  1  0.40424433  0.44747133  0.02031120  1.0
  Ni  Ni185  1  0.40424433  0.78080467  0.02031120  1.0
  Ni  Ni186  1  0.73757767  0.11413800  0.02031120  1.0
  Ni  Ni187  1  0.73757767  0.44747133  0.02031120  1.0
  Ni  Ni188  1  0.73757767  0.78080467  0.02031120  1.0
  Ni  Ni189  1  0.26242233  0.21919533  0.16581280  1.0
  Ni  Ni190  1  0.26242233  0.55252867  0.16581280  1.0
  Ni  Ni191  1  0.26242233  0.88586200  0.16581280  1.0
  Ni  Ni192  1  0.59575567  0.21919533  0.16581280  1.0
  Ni  Ni193  1  0.59575567  0.55252867  0.16581280  1.0
  Ni  Ni194  1  0.59575567  0.88586200  0.16581280  1.0
  Ni  Ni195  1  0.92908900  0.21919533  0.16581280  1.0
  Ni  Ni196  1  0.92908900  0.55252867  0.16581280  1.0
  Ni  Ni197  1  0.92908900  0.88586200  0.16581280  1.0
  Ni  Ni198  1  0.08176833  0.18047400  0.05374020  1.0
  Ni  Ni199  1  0.08176833  0.51380733  0.05374020  1.0
  Ni  Ni200  1  0.08176833  0.84714067  0.05374020  1.0
  Ni  Ni201  1  0.41510167  0.18047400  0.05374020  1.0
  Ni  Ni202  1  0.41510167  0.51380733  0.05374020  1.0
  Ni  Ni203  1  0.41510167  0.84714067  0.05374020  1.0
  Ni  Ni204  1  0.74843500  0.18047400  0.05374020  1.0
  Ni  Ni205  1  0.74843500  0.51380733  0.05374020  1.0
  Ni  Ni206  1  0.74843500  0.84714067  0.05374020  1.0
  Ni  Ni207  1  0.25156500  0.15285933  0.13238380  1.0
  Ni  Ni208  1  0.25156500  0.48619267  0.13238380  1.0
  Ni  Ni209  1  0.25156500  0.81952600  0.13238380  1.0
  Ni  Ni210  1  0.58489833  0.15285933  0.13238380  1.0
  Ni  Ni211  1  0.58489833  0.48619267  0.13238380  1.0
  Ni  Ni212  1  0.58489833  0.81952600  0.13238380  1.0
  Ni  Ni213  1  0.91823167  0.15285933  0.13238380  1.0
  Ni  Ni214  1  0.91823167  0.48619267  0.13238380  1.0
  Ni  Ni215  1  0.91823167  0.81952600  0.13238380  1.0
  Ni  Ni216  1  0.03295067  0.01191867  0.05634780  1.0
  Ni  Ni217  1  0.03295067  0.34525200  0.05634780  1.0
  Ni  Ni218  1  0.03295067  0.67858533  0.05634780  1.0
  Ni  Ni219  1  0.36628400  0.01191867  0.05634780  1.0
  Ni  Ni220  1  0.36628400  0.34525200  0.05634780  1.0
  Ni  Ni221  1  0.36628400  0.67858533  0.05634780  1.0
  Ni  Ni222  1  0.69961733  0.01191867  0.05634780  1.0
  Ni  Ni223  1  0.69961733  0.34525200  0.05634780  1.0
  Ni  Ni224  1  0.69961733  0.67858533  0.05634780  1.0
  Ni  Ni225  1  0.30038267  0.32141467  0.12977620  1.0
  Ni  Ni226  1  0.30038267  0.65474800  0.12977620  1.0
  Ni  Ni227  1  0.30038267  0.98808133  0.12977620  1.0
  Ni  Ni228  1  0.63371600  0.32141467  0.12977620  1.0
  Ni  Ni229  1  0.63371600  0.65474800  0.12977620  1.0
  Ni  Ni230  1  0.63371600  0.98808133  0.12977620  1.0
  Ni  Ni231  1  0.96704933  0.32141467  0.12977620  1.0
  Ni  Ni232  1  0.96704933  0.65474800  0.12977620  1.0
  Ni  Ni233  1  0.96704933  0.98808133  0.12977620  1.0
  Ni  Ni234  1  0.24794667  0.01601233  0.05657620  1.0
  Ni  Ni235  1  0.24794667  0.34934567  0.05657620  1.0
  Ni  Ni236  1  0.24794667  0.68267900  0.05657620  1.0
  Ni  Ni237  1  0.58128000  0.01601233  0.05657620  1.0
  Ni  Ni238  1  0.58128000  0.34934567  0.05657620  1.0
  Ni  Ni239  1  0.58128000  0.68267900  0.05657620  1.0
  Ni  Ni240  1  0.91461333  0.01601233  0.05657620  1.0
  Ni  Ni241  1  0.91461333  0.34934567  0.05657620  1.0
  Ni  Ni242  1  0.91461333  0.68267900  0.05657620  1.0
  Ni  Ni243  1  0.08538667  0.31732100  0.12954780  1.0
  Ni  Ni244  1  0.08538667  0.65065433  0.12954780  1.0
  Ni  Ni245  1  0.08538667  0.98398767  0.12954780  1.0
  Ni  Ni246  1  0.41872000  0.31732100  0.12954780  1.0
  Ni  Ni247  1  0.41872000  0.65065433  0.12954780  1.0
  Ni  Ni248  1  0.41872000  0.98398767  0.12954780  1.0
  Ni  Ni249  1  0.75205333  0.31732100  0.12954780  1.0
  Ni  Ni250  1  0.75205333  0.65065433  0.12954780  1.0
  Ni  Ni251  1  0.75205333  0.98398767  0.12954780  1.0
  Ni  Ni252  1  0.23593500  0.09142533  0.09000600  1.0
  Ni  Ni253  1  0.23593500  0.42475867  0.09000600  1.0
  Ni  Ni254  1  0.23593500  0.75809200  0.09000600  1.0
  Ni  Ni255  1  0.56926833  0.09142533  0.09000600  1.0
  Ni  Ni256  1  0.56926833  0.42475867  0.09000600  1.0
  Ni  Ni257  1  0.56926833  0.75809200  0.09000600  1.0
  Ni  Ni258  1  0.90260167  0.09142533  0.09000600  1.0
  Ni  Ni259  1  0.90260167  0.42475867  0.09000600  1.0
  Ni  Ni260  1  0.90260167  0.75809200  0.09000600  1.0
  Zr  Zr261  1  0.32078267  0.25084400  0.27966660  1.0
  Zr  Zr262  1  0.32078267  0.58417733  0.27966660  1.0
  Zr  Zr263  1  0.32078267  0.91751067  0.27966660  1.0
  Zr  Zr264  1  0.65411600  0.25084400  0.27966660  1.0
  Zr  Zr265  1  0.65411600  0.58417733  0.27966660  1.0
  Zr  Zr266  1  0.65411600  0.91751067  0.27966660  1.0
  Zr  Zr267  1  0.98744933  0.25084400  0.27966660  1.0
  Zr  Zr268  1  0.98744933  0.58417733  0.27966660  1.0
  Zr  Zr269  1  0.98744933  0.91751067  0.27966660  1.0
  Zr  Zr270  1  0.01255067  0.08248933  0.30645740  1.0
  Zr  Zr271  1  0.01255067  0.41582267  0.30645740  1.0
  Zr  Zr272  1  0.01255067  0.74915600  0.30645740  1.0
  Zr  Zr273  1  0.34588400  0.08248933  0.30645740  1.0
  Zr  Zr274  1  0.34588400  0.41582267  0.30645740  1.0
  Zr  Zr275  1  0.34588400  0.74915600  0.30645740  1.0
  Zr  Zr276  1  0.67921733  0.08248933  0.30645740  1.0
  Zr  Zr277  1  0.67921733  0.41582267  0.30645740  1.0
  Zr  Zr278  1  0.67921733  0.74915600  0.30645740  1.0
  Zr  Zr279  1  0.14676333  0.13090133  0.34358880  1.0
  Zr  Zr280  1  0.14676333  0.46423467  0.34358880  1.0
  Zr  Zr281  1  0.14676333  0.79756800  0.34358880  1.0
  Zr  Zr282  1  0.48009667  0.13090133  0.34358880  1.0
  Zr  Zr283  1  0.48009667  0.46423467  0.34358880  1.0
  Zr  Zr284  1  0.48009667  0.79756800  0.34358880  1.0
  Zr  Zr285  1  0.81343000  0.13090133  0.34358880  1.0
  Zr  Zr286  1  0.81343000  0.46423467  0.34358880  1.0
  Zr  Zr287  1  0.81343000  0.79756800  0.34358880  1.0
  Zr  Zr288  1  0.18657000  0.20243200  0.24253520  1.0
  Zr  Zr289  1  0.18657000  0.53576533  0.24253520  1.0
  Zr  Zr290  1  0.18657000  0.86909867  0.24253520  1.0
  Zr  Zr291  1  0.51990333  0.20243200  0.24253520  1.0
  Zr  Zr292  1  0.51990333  0.53576533  0.24253520  1.0
  Zr  Zr293  1  0.51990333  0.86909867  0.24253520  1.0
  Zr  Zr294  1  0.85323667  0.20243200  0.24253520  1.0
  Zr  Zr295  1  0.85323667  0.53576533  0.24253520  1.0
  Zr  Zr296  1  0.85323667  0.86909867  0.24253520  1.0
  Zr  Zr297  1  0.18781867  0.32206167  0.34339400  1.0
  Zr  Zr298  1  0.18781867  0.65539500  0.34339400  1.0
  Zr  Zr299  1  0.18781867  0.98872833  0.34339400  1.0
  Zr  Zr300  1  0.52115200  0.32206167  0.34339400  1.0
  Zr  Zr301  1  0.52115200  0.65539500  0.34339400  1.0
  Zr  Zr302  1  0.52115200  0.98872833  0.34339400  1.0
  Zr  Zr303  1  0.85448533  0.32206167  0.34339400  1.0
  Zr  Zr304  1  0.85448533  0.65539500  0.34339400  1.0
  Zr  Zr305  1  0.85448533  0.98872833  0.34339400  1.0
  Zr  Zr306  1  0.14551467  0.01127167  0.24273000  1.0
  Zr  Zr307  1  0.14551467  0.34460500  0.24273000  1.0
  Zr  Zr308  1  0.14551467  0.67793833  0.24273000  1.0
  Zr  Zr309  1  0.47884800  0.01127167  0.24273000  1.0
  Zr  Zr310  1  0.47884800  0.34460500  0.24273000  1.0
  Zr  Zr311  1  0.47884800  0.67793833  0.24273000  1.0
  Zr  Zr312  1  0.81218133  0.01127167  0.24273000  1.0
  Zr  Zr313  1  0.81218133  0.34460500  0.24273000  1.0
  Zr  Zr314  1  0.81218133  0.67793833  0.24273000  1.0
  Zr  Zr315  1  0.03185400  0.22850833  0.37918600  1.0
  Zr  Zr316  1  0.03185400  0.56184167  0.37918600  1.0
  Zr  Zr317  1  0.03185400  0.89517500  0.37918600  1.0
  Zr  Zr318  1  0.36518733  0.22850833  0.37918600  1.0
  Zr  Zr319  1  0.36518733  0.56184167  0.37918600  1.0
  Zr  Zr320  1  0.36518733  0.89517500  0.37918600  1.0
  Zr  Zr321  1  0.69852067  0.22850833  0.37918600  1.0
  Zr  Zr322  1  0.69852067  0.56184167  0.37918600  1.0
  Zr  Zr323  1  0.69852067  0.89517500  0.37918600  1.0
  Zr  Zr324  1  0.30147933  0.10482500  0.20693800  1.0
  Zr  Zr325  1  0.30147933  0.43815833  0.20693800  1.0
  Zr  Zr326  1  0.30147933  0.77149167  0.20693800  1.0
  Zr  Zr327  1  0.63481267  0.10482500  0.20693800  1.0
  Zr  Zr328  1  0.63481267  0.43815833  0.20693800  1.0
  Zr  Zr329  1  0.63481267  0.77149167  0.20693800  1.0
  Zr  Zr330  1  0.96814600  0.10482500  0.20693800  1.0
  Zr  Zr331  1  0.96814600  0.43815833  0.20693800  1.0
  Zr  Zr332  1  0.96814600  0.77149167  0.20693800  1.0
  Ni  Ni333  1  0.00000000  0.00000000  0.39306200  1.0
  Ni  Ni334  1  0.00000000  0.33333333  0.39306200  1.0
  Ni  Ni335  1  0.00000000  0.66666667  0.39306200  1.0
  Ni  Ni336  1  0.33333333  0.00000000  0.39306200  1.0
  Ni  Ni337  1  0.33333333  0.33333333  0.39306200  1.0
  Ni  Ni338  1  0.33333333  0.66666667  0.39306200  1.0
  Ni  Ni339  1  0.66666667  0.00000000  0.39306200  1.0
  Ni  Ni340  1  0.66666667  0.33333333  0.39306200  1.0
  Ni  Ni341  1  0.66666667  0.66666667  0.39306200  1.0
  Ni  Ni342  1  0.25314133  0.28250467  0.21266500  1.0
  Ni  Ni343  1  0.25314133  0.61583800  0.21266500  1.0
  Ni  Ni344  1  0.25314133  0.94917133  0.21266500  1.0
  Ni  Ni345  1  0.58647467  0.28250467  0.21266500  1.0
  Ni  Ni346  1  0.58647467  0.61583800  0.21266500  1.0
  Ni  Ni347  1  0.58647467  0.94917133  0.21266500  1.0
  Ni  Ni348  1  0.91980800  0.28250467  0.21266500  1.0
  Ni  Ni349  1  0.91980800  0.61583800  0.21266500  1.0
  Ni  Ni350  1  0.91980800  0.94917133  0.21266500  1.0
  Ni  Ni351  1  0.08019200  0.05082867  0.37345900  1.0
  Ni  Ni352  1  0.08019200  0.38416200  0.37345900  1.0
  Ni  Ni353  1  0.08019200  0.71749533  0.37345900  1.0
  Ni  Ni354  1  0.41352533  0.05082867  0.37345900  1.0
  Ni  Ni355  1  0.41352533  0.38416200  0.37345900  1.0
  Ni  Ni356  1  0.41352533  0.71749533  0.37345900  1.0
  Ni  Ni357  1  0.74685867  0.05082867  0.37345900  1.0
  Ni  Ni358  1  0.74685867  0.38416200  0.37345900  1.0
  Ni  Ni359  1  0.74685867  0.71749533  0.37345900  1.0
  Ni  Ni360  1  0.29511900  0.17659267  0.25039780  1.0
  Ni  Ni361  1  0.29511900  0.50992600  0.25039780  1.0
  Ni  Ni362  1  0.29511900  0.84325933  0.25039780  1.0
  Ni  Ni363  1  0.62845233  0.17659267  0.25039780  1.0
  Ni  Ni364  1  0.62845233  0.50992600  0.25039780  1.0
  Ni  Ni365  1  0.62845233  0.84325933  0.25039780  1.0
  Ni  Ni366  1  0.96178567  0.17659267  0.25039780  1.0
  Ni  Ni367  1  0.96178567  0.50992600  0.25039780  1.0
  Ni  Ni368  1  0.96178567  0.84325933  0.25039780  1.0
  Ni  Ni369  1  0.03821433  0.15674067  0.33572620  1.0
  Ni  Ni370  1  0.03821433  0.49007400  0.33572620  1.0
  Ni  Ni371  1  0.03821433  0.82340733  0.33572620  1.0
  Ni  Ni372  1  0.37154767  0.15674067  0.33572620  1.0
  Ni  Ni373  1  0.37154767  0.49007400  0.33572620  1.0
  Ni  Ni374  1  0.37154767  0.82340733  0.33572620  1.0
  Ni  Ni375  1  0.70488100  0.15674067  0.33572620  1.0
  Ni  Ni376  1  0.70488100  0.49007400  0.33572620  1.0
  Ni  Ni377  1  0.70488100  0.82340733  0.33572620  1.0
  Ni  Ni378  1  0.20576933  0.25189100  0.29611820  1.0
  Ni  Ni379  1  0.20576933  0.58522433  0.29611820  1.0
  Ni  Ni380  1  0.20576933  0.91855767  0.29611820  1.0
  Ni  Ni381  1  0.53910267  0.25189100  0.29611820  1.0
  Ni  Ni382  1  0.53910267  0.58522433  0.29611820  1.0
  Ni  Ni383  1  0.53910267  0.91855767  0.29611820  1.0
  Ni  Ni384  1  0.87243600  0.25189100  0.29611820  1.0
  Ni  Ni385  1  0.87243600  0.58522433  0.29611820  1.0
  Ni  Ni386  1  0.87243600  0.91855767  0.29611820  1.0
  Ni  Ni387  1  0.12756400  0.08144233  0.29000580  1.0
  Ni  Ni388  1  0.12756400  0.41477567  0.29000580  1.0
  Ni  Ni389  1  0.12756400  0.74810900  0.29000580  1.0
  Ni  Ni390  1  0.46089733  0.08144233  0.29000580  1.0
  Ni  Ni391  1  0.46089733  0.41477567  0.29000580  1.0
  Ni  Ni392  1  0.46089733  0.74810900  0.29000580  1.0
  Ni  Ni393  1  0.79423067  0.08144233  0.29000580  1.0
  Ni  Ni394  1  0.79423067  0.41477567  0.29000580  1.0
  Ni  Ni395  1  0.79423067  0.74810900  0.29000580  1.0
  Ni  Ni396  1  0.09739833  0.24190800  0.29611800  1.0
  Ni  Ni397  1  0.09739833  0.57524133  0.29611800  1.0
  Ni  Ni398  1  0.09739833  0.90857467  0.29611800  1.0
  Ni  Ni399  1  0.43073167  0.24190800  0.29611800  1.0
  Ni  Ni400  1  0.43073167  0.57524133  0.29611800  1.0
  Ni  Ni401  1  0.43073167  0.90857467  0.29611800  1.0
  Ni  Ni402  1  0.76406500  0.24190800  0.29611800  1.0
  Ni  Ni403  1  0.76406500  0.57524133  0.29611800  1.0
  Ni  Ni404  1  0.76406500  0.90857467  0.29611800  1.0
  Ni  Ni405  1  0.09325433  0.28194667  0.21290920  1.0
  Ni  Ni406  1  0.09325433  0.61528000  0.21290920  1.0
  Ni  Ni407  1  0.09325433  0.94861333  0.21290920  1.0
  Ni  Ni408  1  0.42658767  0.28194667  0.21290920  1.0
  Ni  Ni409  1  0.42658767  0.61528000  0.21290920  1.0
  Ni  Ni410  1  0.42658767  0.94861333  0.21290920  1.0
  Ni  Ni411  1  0.75992100  0.28194667  0.21290920  1.0
  Ni  Ni412  1  0.75992100  0.61528000  0.21290920  1.0
  Ni  Ni413  1  0.75992100  0.94861333  0.21290920  1.0
  Ni  Ni414  1  0.24007900  0.05138667  0.37321480  1.0
  Ni  Ni415  1  0.24007900  0.38472000  0.37321480  1.0
  Ni  Ni416  1  0.24007900  0.71805333  0.37321480  1.0
  Ni  Ni417  1  0.57341233  0.05138667  0.37321480  1.0
  Ni  Ni418  1  0.57341233  0.38472000  0.37321480  1.0
  Ni  Ni419  1  0.57341233  0.71805333  0.37321480  1.0
  Ni  Ni420  1  0.90674567  0.05138667  0.37321480  1.0
  Ni  Ni421  1  0.90674567  0.38472000  0.37321480  1.0
  Ni  Ni422  1  0.90674567  0.71805333  0.37321480  1.0
  Ni  Ni423  1  0.18505900  0.11618200  0.21688880  1.0
  Ni  Ni424  1  0.18505900  0.44951533  0.21688880  1.0
  Ni  Ni425  1  0.18505900  0.78284867  0.21688880  1.0
  Ni  Ni426  1  0.51839233  0.11618200  0.21688880  1.0
  Ni  Ni427  1  0.51839233  0.44951533  0.21688880  1.0
  Ni  Ni428  1  0.51839233  0.78284867  0.21688880  1.0
  Ni  Ni429  1  0.85172567  0.11618200  0.21688880  1.0
  Ni  Ni430  1  0.85172567  0.44951533  0.21688880  1.0
  Ni  Ni431  1  0.85172567  0.78284867  0.21688880  1.0
  Ni  Ni432  1  0.14827433  0.21715133  0.36923520  1.0
  Ni  Ni433  1  0.14827433  0.55048467  0.36923520  1.0
  Ni  Ni434  1  0.14827433  0.88381800  0.36923520  1.0
  Ni  Ni435  1  0.48160767  0.21715133  0.36923520  1.0
  Ni  Ni436  1  0.48160767  0.55048467  0.36923520  1.0
  Ni  Ni437  1  0.48160767  0.88381800  0.36923520  1.0
  Ni  Ni438  1  0.81494100  0.21715133  0.36923520  1.0
  Ni  Ni439  1  0.81494100  0.55048467  0.36923520  1.0
  Ni  Ni440  1  0.81494100  0.88381800  0.36923520  1.0
  Ni  Ni441  1  0.07091100  0.11413800  0.22031120  1.0
  Ni  Ni442  1  0.07091100  0.44747133  0.22031120  1.0
  Ni  Ni443  1  0.07091100  0.78080467  0.22031120  1.0
  Ni  Ni444  1  0.40424433  0.11413800  0.22031120  1.0
  Ni  Ni445  1  0.40424433  0.44747133  0.22031120  1.0
  Ni  Ni446  1  0.40424433  0.78080467  0.22031120  1.0
  Ni  Ni447  1  0.73757767  0.11413800  0.22031120  1.0
  Ni  Ni448  1  0.73757767  0.44747133  0.22031120  1.0
  Ni  Ni449  1  0.73757767  0.78080467  0.22031120  1.0
  Ni  Ni450  1  0.26242233  0.21919533  0.36581280  1.0
  Ni  Ni451  1  0.26242233  0.55252867  0.36581280  1.0
  Ni  Ni452  1  0.26242233  0.88586200  0.36581280  1.0
  Ni  Ni453  1  0.59575567  0.21919533  0.36581280  1.0
  Ni  Ni454  1  0.59575567  0.55252867  0.36581280  1.0
  Ni  Ni455  1  0.59575567  0.88586200  0.36581280  1.0
  Ni  Ni456  1  0.92908900  0.21919533  0.36581280  1.0
  Ni  Ni457  1  0.92908900  0.55252867  0.36581280  1.0
  Ni  Ni458  1  0.92908900  0.88586200  0.36581280  1.0
  Ni  Ni459  1  0.08176833  0.18047400  0.25374020  1.0
  Ni  Ni460  1  0.08176833  0.51380733  0.25374020  1.0
  Ni  Ni461  1  0.08176833  0.84714067  0.25374020  1.0
  Ni  Ni462  1  0.41510167  0.18047400  0.25374020  1.0
  Ni  Ni463  1  0.41510167  0.51380733  0.25374020  1.0
  Ni  Ni464  1  0.41510167  0.84714067  0.25374020  1.0
  Ni  Ni465  1  0.74843500  0.18047400  0.25374020  1.0
  Ni  Ni466  1  0.74843500  0.51380733  0.25374020  1.0
  Ni  Ni467  1  0.74843500  0.84714067  0.25374020  1.0
  Ni  Ni468  1  0.25156500  0.15285933  0.33238380  1.0
  Ni  Ni469  1  0.25156500  0.48619267  0.33238380  1.0
  Ni  Ni470  1  0.25156500  0.81952600  0.33238380  1.0
  Ni  Ni471  1  0.58489833  0.15285933  0.33238380  1.0
  Ni  Ni472  1  0.58489833  0.48619267  0.33238380  1.0
  Ni  Ni473  1  0.58489833  0.81952600  0.33238380  1.0
  Ni  Ni474  1  0.91823167  0.15285933  0.33238380  1.0
  Ni  Ni475  1  0.91823167  0.48619267  0.33238380  1.0
  Ni  Ni476  1  0.91823167  0.81952600  0.33238380  1.0
  Ni  Ni477  1  0.03295067  0.01191867  0.25634780  1.0
  Ni  Ni478  1  0.03295067  0.34525200  0.25634780  1.0
  Ni  Ni479  1  0.03295067  0.67858533  0.25634780  1.0
  Ni  Ni480  1  0.36628400  0.01191867  0.25634780  1.0
  Ni  Ni481  1  0.36628400  0.34525200  0.25634780  1.0
  Ni  Ni482  1  0.36628400  0.67858533  0.25634780  1.0
  Ni  Ni483  1  0.69961733  0.01191867  0.25634780  1.0
  Ni  Ni484  1  0.69961733  0.34525200  0.25634780  1.0
  Ni  Ni485  1  0.69961733  0.67858533  0.25634780  1.0
  Ni  Ni486  1  0.30038267  0.32141467  0.32977620  1.0
  Ni  Ni487  1  0.30038267  0.65474800  0.32977620  1.0
  Ni  Ni488  1  0.30038267  0.98808133  0.32977620  1.0
  Ni  Ni489  1  0.63371600  0.32141467  0.32977620  1.0
  Ni  Ni490  1  0.63371600  0.65474800  0.32977620  1.0
  Ni  Ni491  1  0.63371600  0.98808133  0.32977620  1.0
  Ni  Ni492  1  0.96704933  0.32141467  0.32977620  1.0
  Ni  Ni493  1  0.96704933  0.65474800  0.32977620  1.0
  Ni  Ni494  1  0.96704933  0.98808133  0.32977620  1.0
  Ni  Ni495  1  0.24794667  0.01601233  0.25657620  1.0
  Ni  Ni496  1  0.24794667  0.34934567  0.25657620  1.0
  Ni  Ni497  1  0.24794667  0.68267900  0.25657620  1.0
  Ni  Ni498  1  0.58128000  0.01601233  0.25657620  1.0
  Ni  Ni499  1  0.58128000  0.34934567  0.25657620  1.0
  Ni  Ni500  1  0.58128000  0.68267900  0.25657620  1.0
  Ni  Ni501  1  0.91461333  0.01601233  0.25657620  1.0
  Ni  Ni502  1  0.91461333  0.34934567  0.25657620  1.0
  Ni  Ni503  1  0.91461333  0.68267900  0.25657620  1.0
  Ni  Ni504  1  0.08538667  0.31732100  0.32954780  1.0
  Ni  Ni505  1  0.08538667  0.65065433  0.32954780  1.0
  Ni  Ni506  1  0.08538667  0.98398767  0.32954780  1.0
  Ni  Ni507  1  0.41872000  0.31732100  0.32954780  1.0
  Ni  Ni508  1  0.41872000  0.65065433  0.32954780  1.0
  Ni  Ni509  1  0.41872000  0.98398767  0.32954780  1.0
  Ni  Ni510  1  0.75205333  0.31732100  0.32954780  1.0
  Ni  Ni511  1  0.75205333  0.65065433  0.32954780  1.0
  Ni  Ni512  1  0.75205333  0.98398767  0.32954780  1.0
  Ni  Ni513  1  0.23593500  0.09142533  0.29000600  1.0
  Ni  Ni514  1  0.23593500  0.42475867  0.29000600  1.0
  Ni  Ni515  1  0.23593500  0.75809200  0.29000600  1.0
  Ni  Ni516  1  0.56926833  0.09142533  0.29000600  1.0
  Ni  Ni517  1  0.56926833  0.42475867  0.29000600  1.0
  Ni  Ni518  1  0.56926833  0.75809200  0.29000600  1.0
  Ni  Ni519  1  0.90260167  0.09142533  0.29000600  1.0
  Ni  Ni520  1  0.90260167  0.42475867  0.29000600  1.0
  Ni  Ni521  1  0.90260167  0.75809200  0.29000600  1.0
