# generated using pymatgen
data_Zr8Ni21
_symmetry_space_group_name_H-M   'P 1'
_cell_length_a   19.35357300
_cell_length_b   24.24595332
_cell_length_c   34.26719704
_cell_angle_alpha   75.35020407
_cell_angle_beta   68.02581060
_cell_angle_gamma   75.32519466
_symmetry_Int_Tables_number   1
_chemical_formula_structural   Zr8Ni21
_chemical_formula_sum   'Zr144 Ni378'
_cell_volume   14199.33427303
_cell_formula_units_Z   18
loop_
 _symmetry_equiv_pos_site_id
 _symmetry_equiv_pos_as_xyz
  1  'x, y, z'
loop_
 _atom_site_type_symbol
 _atom_site_label
 _atom_site_symmetry_multiplicity
 _atom_site_fract_x
 _atom_site_fract_y
 _atom_site_fract_z
 _atom_site_occupancy
  Zr  Zr0  1  0.14434100  0.32078267  0.18212838  1.0
  Zr  Zr1  1  0.14434100  0.65411600  0.18212837  1.0
  Zr  Zr2  1  0.14434100  0.98744933  0.18212837  1.0
  Zr  Zr3  1  0.47767433  0.32078267  0.18212837  1.0
  Zr  Zr4  1  0.47767433  0.65411600  0.18212837  1.0
  Zr  Zr5  1  0.47767433  0.98744933  0.18212838  1.0
  Zr  Zr6  1  0.81100767  0.32078267  0.18212837  1.0
  Zr  Zr7  1  0.81100767  0.65411600  0.18212838  1.0
  Zr  Zr8  1  0.81100767  0.98744933  0.18212837  1.0
  Zr  Zr9  1  0.18899233  0.01255067  0.05586237  1.0
  Zr  Zr10  1  0.18899233  0.34588400  0.05586238  1.0
  Zr  Zr11  1  0.18899233  0.67921733  0.05586238  1.0
  Zr  Zr12  1  0.52232567  0.01255067  0.05586238  1.0
  Zr  Zr13  1  0.52232567  0.34588400  0.05586237  1.0
  Zr  Zr14  1  0.52232567  0.67921733  0.05586238  1.0
  Zr  Zr15  1  0.85565900  0.01255067  0.05586237  1.0
  Zr  Zr16  1  0.85565900  0.34588400  0.05586238  1.0
  Zr  Zr17  1  0.85565900  0.67921733  0.05586238  1.0
  Zr  Zr18  1  0.25087800  0.14676333  0.09217137  1.0
  Zr  Zr19  1  0.25087800  0.48009667  0.09217137  1.0
  Zr  Zr20  1  0.25087800  0.81343000  0.09217137  1.0
  Zr  Zr21  1  0.58421133  0.14676333  0.09217137  1.0
  Zr  Zr22  1  0.58421133  0.48009667  0.09217137  1.0
  Zr  Zr23  1  0.58421133  0.81343000  0.09217137  1.0
  Zr  Zr24  1  0.91754467  0.14676333  0.09217137  1.0
  Zr  Zr25  1  0.91754467  0.48009667  0.09217137  1.0
  Zr  Zr26  1  0.91754467  0.81343000  0.09217137  1.0
  Zr  Zr27  1  0.08245533  0.18657000  0.14581937  1.0
  Zr  Zr28  1  0.08245533  0.51990333  0.14581937  1.0
  Zr  Zr29  1  0.08245533  0.85323667  0.14581937  1.0
  Zr  Zr30  1  0.41578867  0.18657000  0.14581937  1.0
  Zr  Zr31  1  0.41578867  0.51990333  0.14581937  1.0
  Zr  Zr32  1  0.41578867  0.85323667  0.14581937  1.0
  Zr  Zr33  1  0.74912200  0.18657000  0.14581937  1.0
  Zr  Zr34  1  0.74912200  0.51990333  0.14581937  1.0
  Zr  Zr35  1  0.74912200  0.85323667  0.14581937  1.0
  Zr  Zr36  1  0.25055333  0.18781867  0.23554163  1.0
  Zr  Zr37  1  0.25055333  0.52115200  0.23554163  1.0
  Zr  Zr38  1  0.25055333  0.85448533  0.23554163  1.0
  Zr  Zr39  1  0.58388667  0.18781867  0.23554163  1.0
  Zr  Zr40  1  0.58388667  0.52115200  0.23554163  1.0
  Zr  Zr41  1  0.58388667  0.85448533  0.23554163  1.0
  Zr  Zr42  1  0.91722000  0.18781867  0.23554163  1.0
  Zr  Zr43  1  0.91722000  0.52115200  0.23554163  1.0
  Zr  Zr44  1  0.91722000  0.85448533  0.23554163  1.0
  Zr  Zr45  1  0.08278000  0.14551467  0.00244913  1.0
  Zr  Zr46  1  0.08278000  0.47884800  0.00244912  1.0
  Zr  Zr47  1  0.08278000  0.81218133  0.00244912  1.0
  Zr  Zr48  1  0.41611333  0.14551467  0.00244912  1.0
  Zr  Zr49  1  0.41611333  0.47884800  0.00244912  1.0
  Zr  Zr50  1  0.41611333  0.81218133  0.00244912  1.0
  Zr  Zr51  1  0.74944667  0.14551467  0.00244912  1.0
  Zr  Zr52  1  0.74944667  0.47884800  0.00244913  1.0
  Zr  Zr53  1  0.74944667  0.81218133  0.00244912  1.0
  Zr  Zr54  1  0.31020667  0.03185400  0.16537662  1.0
  Zr  Zr55  1  0.31020667  0.36518733  0.16537662  1.0
  Zr  Zr56  1  0.31020667  0.69852067  0.16537662  1.0
  Zr  Zr57  1  0.64354000  0.03185400  0.16537662  1.0
  Zr  Zr58  1  0.64354000  0.36518733  0.16537662  1.0
  Zr  Zr59  1  0.64354000  0.69852067  0.16537663  1.0
  Zr  Zr60  1  0.97687333  0.03185400  0.16537662  1.0
  Zr  Zr61  1  0.97687333  0.36518733  0.16537663  1.0
  Zr  Zr62  1  0.97687333  0.69852067  0.16537662  1.0
  Zr  Zr63  1  0.02312667  0.30147933  0.07261413  1.0
  Zr  Zr64  1  0.02312667  0.63481267  0.07261413  1.0
  Zr  Zr65  1  0.02312667  0.96814600  0.07261413  1.0
  Zr  Zr66  1  0.35646000  0.30147933  0.07261413  1.0
  Zr  Zr67  1  0.35646000  0.63481267  0.07261412  1.0
  Zr  Zr68  1  0.35646000  0.96814600  0.07261413  1.0
  Zr  Zr69  1  0.68979333  0.30147933  0.07261413  1.0
  Zr  Zr70  1  0.68979333  0.63481267  0.07261413  1.0
  Zr  Zr71  1  0.68979333  0.96814600  0.07261413  1.0
  Ni  Ni72  1  0.00000000  0.00000000  0.24399538  1.0
  Ni  Ni73  1  0.00000000  0.33333333  0.24399538  1.0
  Ni  Ni74  1  0.00000000  0.66666667  0.24399538  1.0
  Ni  Ni75  1  0.33333333  0.00000000  0.24399538  1.0
  Ni  Ni76  1  0.33333333  0.33333333  0.24399538  1.0
  Ni  Ni77  1  0.33333333  0.66666667  0.24399538  1.0
  Ni  Ni78  1  0.66666667  0.00000000  0.24399538  1.0
  Ni  Ni79  1  0.66666667  0.33333333  0.24399538  1.0
  Ni  Ni80  1  0.66666667  0.66666667  0.24399538  1.0
  Ni  Ni81  1  0.03267167  0.25314133  0.20587387  1.0
  Ni  Ni82  1  0.03267167  0.58647467  0.20587387  1.0
  Ni  Ni83  1  0.03267167  0.91980800  0.20587387  1.0
  Ni  Ni84  1  0.36600500  0.25314133  0.20587387  1.0
  Ni  Ni85  1  0.36600500  0.58647467  0.20587387  1.0
  Ni  Ni86  1  0.36600500  0.91980800  0.20587387  1.0
  Ni  Ni87  1  0.69933833  0.25314133  0.20587387  1.0
  Ni  Ni88  1  0.69933833  0.58647467  0.20587387  1.0
  Ni  Ni89  1  0.69933833  0.91980800  0.20587387  1.0
  Ni  Ni90  1  0.30066167  0.08019200  0.03211687  1.0
  Ni  Ni91  1  0.30066167  0.41352533  0.03211688  1.0
  Ni  Ni92  1  0.30066167  0.74685867  0.03211688  1.0
  Ni  Ni93  1  0.63399500  0.08019200  0.03211688  1.0
  Ni  Ni94  1  0.63399500  0.41352533  0.03211687  1.0
  Ni  Ni95  1  0.63399500  0.74685867  0.03211688  1.0
  Ni  Ni96  1  0.96732833  0.08019200  0.03211688  1.0
  Ni  Ni97  1  0.96732833  0.41352533  0.03211688  1.0
  Ni  Ni98  1  0.96732833  0.74685867  0.03211687  1.0
  Ni  Ni99  1  0.09555967  0.29511900  0.12643988  1.0
  Ni  Ni100  1  0.09555967  0.62845233  0.12643988  1.0
  Ni  Ni101  1  0.09555967  0.96178567  0.12643988  1.0
  Ni  Ni102  1  0.42889300  0.29511900  0.12643988  1.0
  Ni  Ni103  1  0.42889300  0.62845233  0.12643988  1.0
  Ni  Ni104  1  0.42889300  0.96178567  0.12643988  1.0
  Ni  Ni105  1  0.76222633  0.29511900  0.12643988  1.0
  Ni  Ni106  1  0.76222633  0.62845233  0.12643988  1.0
  Ni  Ni107  1  0.76222633  0.96178567  0.12643988  1.0
  Ni  Ni108  1  0.23777367  0.03821433  0.11155088  1.0
  Ni  Ni109  1  0.23777367  0.37154767  0.11155087  1.0
  Ni  Ni110  1  0.23777367  0.70488100  0.11155088  1.0
  Ni  Ni111  1  0.57110700  0.03821433  0.11155088  1.0
  Ni  Ni112  1  0.57110700  0.37154767  0.11155088  1.0
  Ni  Ni113  1  0.57110700  0.70488100  0.11155088  1.0
  Ni  Ni114  1  0.90444033  0.03821433  0.11155088  1.0
  Ni  Ni115  1  0.90444033  0.37154767  0.11155088  1.0
  Ni  Ni116  1  0.90444033  0.70488100  0.11155087  1.0
  Ni  Ni117  1  0.17176033  0.20576933  0.18291363  1.0
  Ni  Ni118  1  0.17176033  0.53910267  0.18291363  1.0
  Ni  Ni119  1  0.17176033  0.87243600  0.18291363  1.0
  Ni  Ni120  1  0.50509367  0.20576933  0.18291363  1.0
  Ni  Ni121  1  0.50509367  0.53910267  0.18291363  1.0
  Ni  Ni122  1  0.50509367  0.87243600  0.18291363  1.0
  Ni  Ni123  1  0.83842700  0.20576933  0.18291363  1.0
  Ni  Ni124  1  0.83842700  0.53910267  0.18291363  1.0
  Ni  Ni125  1  0.83842700  0.87243600  0.18291363  1.0
  Ni  Ni126  1  0.16157300  0.12756400  0.05507712  1.0
  Ni  Ni127  1  0.16157300  0.46089733  0.05507712  1.0
  Ni  Ni128  1  0.16157300  0.79423067  0.05507712  1.0
  Ni  Ni129  1  0.49490633  0.12756400  0.05507712  1.0
  Ni  Ni130  1  0.49490633  0.46089733  0.05507712  1.0
  Ni  Ni131  1  0.49490633  0.79423067  0.05507713  1.0
  Ni  Ni132  1  0.82823967  0.12756400  0.05507713  1.0
  Ni  Ni133  1  0.82823967  0.46089733  0.05507713  1.0
  Ni  Ni134  1  0.82823967  0.79423067  0.05507712  1.0
  Ni  Ni135  1  0.17176000  0.09739833  0.17542638  1.0
  Ni  Ni136  1  0.17176000  0.43073167  0.17542638  1.0
  Ni  Ni137  1  0.17176000  0.76406500  0.17542638  1.0
  Ni  Ni138  1  0.50509333  0.09739833  0.17542638  1.0
  Ni  Ni139  1  0.50509333  0.43073167  0.17542638  1.0
  Ni  Ni140  1  0.50509333  0.76406500  0.17542638  1.0
  Ni  Ni141  1  0.83842667  0.09739833  0.17542638  1.0
  Ni  Ni142  1  0.83842667  0.43073167  0.17542638  1.0
  Ni  Ni143  1  0.83842667  0.76406500  0.17542638  1.0
  Ni  Ni144  1  0.03307867  0.09325433  0.20545538  1.0
  Ni  Ni145  1  0.03307867  0.42658767  0.20545538  1.0
  Ni  Ni146  1  0.03307867  0.75992100  0.20545538  1.0
  Ni  Ni147  1  0.36641200  0.09325433  0.20545538  1.0
  Ni  Ni148  1  0.36641200  0.42658767  0.20545538  1.0
  Ni  Ni149  1  0.36641200  0.75992100  0.20545538  1.0
  Ni  Ni150  1  0.69974533  0.09325433  0.20545538  1.0
  Ni  Ni151  1  0.69974533  0.42658767  0.20545538  1.0
  Ni  Ni152  1  0.69974533  0.75992100  0.20545538  1.0
  Ni  Ni153  1  0.30025467  0.24007900  0.03253538  1.0
  Ni  Ni154  1  0.30025467  0.57341233  0.03253538  1.0
  Ni  Ni155  1  0.30025467  0.90674567  0.03253537  1.0
  Ni  Ni156  1  0.63358800  0.24007900  0.03253538  1.0
  Ni  Ni157  1  0.63358800  0.57341233  0.03253538  1.0
  Ni  Ni158  1  0.63358800  0.90674567  0.03253538  1.0
  Ni  Ni159  1  0.96692133  0.24007900  0.03253538  1.0
  Ni  Ni160  1  0.96692133  0.57341233  0.03253538  1.0
  Ni  Ni161  1  0.96692133  0.90674567  0.03253537  1.0
  Ni  Ni162  1  0.03971133  0.18505900  0.08113187  1.0
  Ni  Ni163  1  0.03971133  0.51839233  0.08113187  1.0
  Ni  Ni164  1  0.03971133  0.85172567  0.08113188  1.0
  Ni  Ni165  1  0.37304467  0.18505900  0.08113187  1.0
  Ni  Ni166  1  0.37304467  0.51839233  0.08113188  1.0
  Ni  Ni167  1  0.37304467  0.85172567  0.08113188  1.0
  Ni  Ni168  1  0.70637800  0.18505900  0.08113188  1.0
  Ni  Ni169  1  0.70637800  0.51839233  0.08113188  1.0
  Ni  Ni170  1  0.70637800  0.85172567  0.08113188  1.0
  Ni  Ni171  1  0.29362200  0.14827433  0.15685887  1.0
  Ni  Ni172  1  0.29362200  0.48160767  0.15685887  1.0
  Ni  Ni173  1  0.29362200  0.81494100  0.15685887  1.0
  Ni  Ni174  1  0.62695533  0.14827433  0.15685887  1.0
  Ni  Ni175  1  0.62695533  0.48160767  0.15685887  1.0
  Ni  Ni176  1  0.62695533  0.81494100  0.15685887  1.0
  Ni  Ni177  1  0.96028867  0.14827433  0.15685887  1.0
  Ni  Ni178  1  0.96028867  0.48160767  0.15685887  1.0
  Ni  Ni179  1  0.96028867  0.81494100  0.15685887  1.0
  Ni  Ni180  1  0.04541533  0.07091100  0.07959887  1.0
  Ni  Ni181  1  0.04541533  0.40424433  0.07959887  1.0
  Ni  Ni182  1  0.04541533  0.73757767  0.07959887  1.0
  Ni  Ni183  1  0.37874867  0.07091100  0.07959887  1.0
  Ni  Ni184  1  0.37874867  0.40424433  0.07959887  1.0
  Ni  Ni185  1  0.37874867  0.73757767  0.07959887  1.0
  Ni  Ni186  1  0.71208200  0.07091100  0.07959887  1.0
  Ni  Ni187  1  0.71208200  0.40424433  0.07959888  1.0
  Ni  Ni188  1  0.71208200  0.73757767  0.07959887  1.0
  Ni  Ni189  1  0.28791800  0.26242233  0.15839187  1.0
  Ni  Ni190  1  0.28791800  0.59575567  0.15839187  1.0
  Ni  Ni191  1  0.28791800  0.92908900  0.15839187  1.0
  Ni  Ni192  1  0.62125133  0.26242233  0.15839187  1.0
  Ni  Ni193  1  0.62125133  0.59575567  0.15839187  1.0
  Ni  Ni194  1  0.62125133  0.92908900  0.15839188  1.0
  Ni  Ni195  1  0.95458467  0.26242233  0.15839188  1.0
  Ni  Ni196  1  0.95458467  0.59575567  0.15839188  1.0
  Ni  Ni197  1  0.95458467  0.92908900  0.15839188  1.0
  Ni  Ni198  1  0.10113033  0.08176833  0.12935087  1.0
  Ni  Ni199  1  0.10113033  0.41510167  0.12935087  1.0
  Ni  Ni200  1  0.10113033  0.74843500  0.12935087  1.0
  Ni  Ni201  1  0.43446367  0.08176833  0.12935087  1.0
  Ni  Ni202  1  0.43446367  0.41510167  0.12935087  1.0
  Ni  Ni203  1  0.43446367  0.74843500  0.12935087  1.0
  Ni  Ni204  1  0.76779700  0.08176833  0.12935088  1.0
  Ni  Ni205  1  0.76779700  0.41510167  0.12935088  1.0
  Ni  Ni206  1  0.76779700  0.74843500  0.12935088  1.0
  Ni  Ni207  1  0.23220300  0.25156500  0.10863987  1.0
  Ni  Ni208  1  0.23220300  0.58489833  0.10863988  1.0
  Ni  Ni209  1  0.23220300  0.91823167  0.10863987  1.0
  Ni  Ni210  1  0.56553633  0.25156500  0.10863987  1.0
  Ni  Ni211  1  0.56553633  0.58489833  0.10863987  1.0
  Ni  Ni212  1  0.56553633  0.91823167  0.10863988  1.0
  Ni  Ni213  1  0.89886967  0.25156500  0.10863987  1.0
  Ni  Ni214  1  0.89886967  0.58489833  0.10863988  1.0
  Ni  Ni215  1  0.89886967  0.91823167  0.10863988  1.0
  Ni  Ni216  1  0.10547633  0.03295067  0.00293438  1.0
  Ni  Ni217  1  0.10547633  0.36628400  0.00293437  1.0
  Ni  Ni218  1  0.10547633  0.69961733  0.00293438  1.0
  Ni  Ni219  1  0.43880967  0.03295067  0.00293437  1.0
  Ni  Ni220  1  0.43880967  0.36628400  0.00293438  1.0
  Ni  Ni221  1  0.43880967  0.69961733  0.00293438  1.0
  Ni  Ni222  1  0.77214300  0.03295067  0.00293438  1.0
  Ni  Ni223  1  0.77214300  0.36628400  0.00293438  1.0
  Ni  Ni224  1  0.77214300  0.69961733  0.00293437  1.0
  Ni  Ni225  1  0.22785700  0.30038267  0.23505637  1.0
  Ni  Ni226  1  0.22785700  0.63371600  0.23505637  1.0
  Ni  Ni227  1  0.22785700  0.96704933  0.23505637  1.0
  Ni  Ni228  1  0.56119033  0.30038267  0.23505637  1.0
  Ni  Ni229  1  0.56119033  0.63371600  0.23505637  1.0
  Ni  Ni230  1  0.56119033  0.96704933  0.23505637  1.0
  Ni  Ni231  1  0.89452367  0.30038267  0.23505637  1.0
  Ni  Ni232  1  0.89452367  0.63371600  0.23505637  1.0
  Ni  Ni233  1  0.89452367  0.96704933  0.23505637  1.0
  Ni  Ni234  1  0.10585700  0.24794667  0.00600462  1.0
  Ni  Ni235  1  0.10585700  0.58128000  0.00600462  1.0
  Ni  Ni236  1  0.10585700  0.91461333  0.00600463  1.0
  Ni  Ni237  1  0.43919033  0.24794667  0.00600462  1.0
  Ni  Ni238  1  0.43919033  0.58128000  0.00600463  1.0
  Ni  Ni239  1  0.43919033  0.91461333  0.00600462  1.0
  Ni  Ni240  1  0.77252367  0.24794667  0.00600463  1.0
  Ni  Ni241  1  0.77252367  0.58128000  0.00600463  1.0
  Ni  Ni242  1  0.77252367  0.91461333  0.00600462  1.0
  Ni  Ni243  1  0.22747633  0.08538667  0.23198613  1.0
  Ni  Ni244  1  0.22747633  0.41872000  0.23198613  1.0
  Ni  Ni245  1  0.22747633  0.75205333  0.23198613  1.0
  Ni  Ni246  1  0.56080967  0.08538667  0.23198613  1.0
  Ni  Ni247  1  0.56080967  0.41872000  0.23198613  1.0
  Ni  Ni248  1  0.56080967  0.75205333  0.23198612  1.0
  Ni  Ni249  1  0.89414300  0.08538667  0.23198613  1.0
  Ni  Ni250  1  0.89414300  0.41872000  0.23198613  1.0
  Ni  Ni251  1  0.89414300  0.75205333  0.23198613  1.0
  Ni  Ni252  1  0.16157333  0.23593500  0.06256437  1.0
  Ni  Ni253  1  0.16157333  0.56926833  0.06256437  1.0
  Ni  Ni254  1  0.16157333  0.90260167  0.06256438  1.0
  Ni  Ni255  1  0.49490667  0.23593500  0.06256438  1.0
  Ni  Ni256  1  0.49490667  0.56926833  0.06256438  1.0
  Ni  Ni257  1  0.49490667  0.90260167  0.06256438  1.0
  Ni  Ni258  1  0.82824000  0.23593500  0.06256438  1.0
  Ni  Ni259  1  0.82824000  0.56926833  0.06256438  1.0
  Ni  Ni260  1  0.82824000  0.90260167  0.06256438  1.0
  Zr  Zr261  1  0.14434100  0.32078267  0.43212837  1.0
  Zr  Zr262  1  0.14434100  0.65411600  0.43212838  1.0
  Zr  Zr263  1  0.14434100  0.98744933  0.43212837  1.0
  Zr  Zr264  1  0.47767433  0.32078267  0.43212838  1.0
  Zr  Zr265  1  0.47767433  0.65411600  0.43212838  1.0
  Zr  Zr266  1  0.47767433  0.98744933  0.43212838  1.0
  Zr  Zr267  1  0.81100767  0.32078267  0.43212838  1.0
  Zr  Zr268  1  0.81100767  0.65411600  0.43212838  1.0
  Zr  Zr269  1  0.81100767  0.98744933  0.43212838  1.0
  Zr  Zr270  1  0.18899233  0.01255067  0.30586238  1.0
  Zr  Zr271  1  0.18899233  0.34588400  0.30586238  1.0
  Zr  Zr272  1  0.18899233  0.67921733  0.30586238  1.0
  Zr  Zr273  1  0.52232567  0.01255067  0.30586238  1.0
  Zr  Zr274  1  0.52232567  0.34588400  0.30586238  1.0
  Zr  Zr275  1  0.52232567  0.67921733  0.30586238  1.0
  Zr  Zr276  1  0.85565900  0.01255067  0.30586238  1.0
  Zr  Zr277  1  0.85565900  0.34588400  0.30586238  1.0
  Zr  Zr278  1  0.85565900  0.67921733  0.30586238  1.0
  Zr  Zr279  1  0.25087800  0.14676333  0.34217137  1.0
  Zr  Zr280  1  0.25087800  0.48009667  0.34217137  1.0
  Zr  Zr281  1  0.25087800  0.81343000  0.34217137  1.0
  Zr  Zr282  1  0.58421133  0.14676333  0.34217137  1.0
  Zr  Zr283  1  0.58421133  0.48009667  0.34217137  1.0
  Zr  Zr284  1  0.58421133  0.81343000  0.34217137  1.0
  Zr  Zr285  1  0.91754467  0.14676333  0.34217137  1.0
  Zr  Zr286  1  0.91754467  0.48009667  0.34217137  1.0
  Zr  Zr287  1  0.91754467  0.81343000  0.34217137  1.0
  Zr  Zr288  1  0.08245533  0.18657000  0.39581937  1.0
  Zr  Zr289  1  0.08245533  0.51990333  0.39581938  1.0
  Zr  Zr290  1  0.08245533  0.85323667  0.39581937  1.0
  Zr  Zr291  1  0.41578867  0.18657000  0.39581937  1.0
  Zr  Zr292  1  0.41578867  0.51990333  0.39581937  1.0
  Zr  Zr293  1  0.41578867  0.85323667  0.39581937  1.0
  Zr  Zr294  1  0.74912200  0.18657000  0.39581937  1.0
  Zr  Zr295  1  0.74912200  0.51990333  0.39581937  1.0
  Zr  Zr296  1  0.74912200  0.85323667  0.39581937  1.0
  Zr  Zr297  1  0.25055333  0.18781867  0.48554163  1.0
  Zr  Zr298  1  0.25055333  0.52115200  0.48554163  1.0
  Zr  Zr299  1  0.25055333  0.85448533  0.48554163  1.0
  Zr  Zr300  1  0.58388667  0.18781867  0.48554163  1.0
  Zr  Zr301  1  0.58388667  0.52115200  0.48554163  1.0
  Zr  Zr302  1  0.58388667  0.85448533  0.48554163  1.0
  Zr  Zr303  1  0.91722000  0.18781867  0.48554163  1.0
  Zr  Zr304  1  0.91722000  0.52115200  0.48554163  1.0
  Zr  Zr305  1  0.91722000  0.85448533  0.48554163  1.0
  Zr  Zr306  1  0.08278000  0.14551467  0.25244913  1.0
  Zr  Zr307  1  0.08278000  0.47884800  0.25244912  1.0
  Zr  Zr308  1  0.08278000  0.81218133  0.25244913  1.0
  Zr  Zr309  1  0.41611333  0.14551467  0.25244912  1.0
  Zr  Zr310  1  0.41611333  0.47884800  0.25244913  1.0
  Zr  Zr311  1  0.41611333  0.81218133  0.25244913  1.0
  Zr  Zr312  1  0.74944667  0.14551467  0.25244913  1.0
  Zr  Zr313  1  0.74944667  0.47884800  0.25244913  1.0
  Zr  Zr314  1  0.74944667  0.81218133  0.25244913  1.0
  Zr  Zr315  1  0.31020667  0.03185400  0.41537662  1.0
  Zr  Zr316  1  0.31020667  0.36518733  0.41537662  1.0
  Zr  Zr317  1  0.31020667  0.69852067  0.41537662  1.0
  Zr  Zr318  1  0.64354000  0.03185400  0.41537662  1.0
  Zr  Zr319  1  0.64354000  0.36518733  0.41537662  1.0
  Zr  Zr320  1  0.64354000  0.69852067  0.41537662  1.0
  Zr  Zr321  1  0.97687333  0.03185400  0.41537662  1.0
  Zr  Zr322  1  0.97687333  0.36518733  0.41537662  1.0
  Zr  Zr323  1  0.97687333  0.69852067  0.41537662  1.0
  Zr  Zr324  1  0.02312667  0.30147933  0.32261413  1.0
  Zr  Zr325  1  0.02312667  0.63481267  0.32261412  1.0
  Zr  Zr326  1  0.02312667  0.96814600  0.32261413  1.0
  Zr  Zr327  1  0.35646000  0.30147933  0.32261412  1.0
  Zr  Zr328  1  0.35646000  0.63481267  0.32261412  1.0
  Zr  Zr329  1  0.35646000  0.96814600  0.32261412  1.0
  Zr  Zr330  1  0.68979333  0.30147933  0.32261413  1.0
  Zr  Zr331  1  0.68979333  0.63481267  0.32261413  1.0
  Zr  Zr332  1  0.68979333  0.96814600  0.32261413  1.0
  Ni  Ni333  1  0.00000000  0.00000000  0.49399538  1.0
  Ni  Ni334  1  0.00000000  0.33333333  0.49399538  1.0
  Ni  Ni335  1  0.00000000  0.66666667  0.49399538  1.0
  Ni  Ni336  1  0.33333333  0.00000000  0.49399538  1.0
  Ni  Ni337  1  0.33333333  0.33333333  0.49399537  1.0
  Ni  Ni338  1  0.33333333  0.66666667  0.49399538  1.0
  Ni  Ni339  1  0.66666667  0.00000000  0.49399538  1.0
  Ni  Ni340  1  0.66666667  0.33333333  0.49399538  1.0
  Ni  Ni341  1  0.66666667  0.66666667  0.49399538  1.0
  Ni  Ni342  1  0.03267167  0.25314133  0.45587387  1.0
  Ni  Ni343  1  0.03267167  0.58647467  0.45587387  1.0
  Ni  Ni344  1  0.03267167  0.91980800  0.45587387  1.0
  Ni  Ni345  1  0.36600500  0.25314133  0.45587388  1.0
  Ni  Ni346  1  0.36600500  0.58647467  0.45587387  1.0
  Ni  Ni347  1  0.36600500  0.91980800  0.45587388  1.0
  Ni  Ni348  1  0.69933833  0.25314133  0.45587387  1.0
  Ni  Ni349  1  0.69933833  0.58647467  0.45587387  1.0
  Ni  Ni350  1  0.69933833  0.91980800  0.45587388  1.0
  Ni  Ni351  1  0.30066167  0.08019200  0.28211687  1.0
  Ni  Ni352  1  0.30066167  0.41352533  0.28211687  1.0
  Ni  Ni353  1  0.30066167  0.74685867  0.28211688  1.0
  Ni  Ni354  1  0.63399500  0.08019200  0.28211687  1.0
  Ni  Ni355  1  0.63399500  0.41352533  0.28211688  1.0
  Ni  Ni356  1  0.63399500  0.74685867  0.28211688  1.0
  Ni  Ni357  1  0.96732833  0.08019200  0.28211687  1.0
  Ni  Ni358  1  0.96732833  0.41352533  0.28211688  1.0
  Ni  Ni359  1  0.96732833  0.74685867  0.28211687  1.0
  Ni  Ni360  1  0.09555967  0.29511900  0.37643988  1.0
  Ni  Ni361  1  0.09555967  0.62845233  0.37643987  1.0
  Ni  Ni362  1  0.09555967  0.96178567  0.37643988  1.0
  Ni  Ni363  1  0.42889300  0.29511900  0.37643988  1.0
  Ni  Ni364  1  0.42889300  0.62845233  0.37643988  1.0
  Ni  Ni365  1  0.42889300  0.96178567  0.37643988  1.0
  Ni  Ni366  1  0.76222633  0.29511900  0.37643988  1.0
  Ni  Ni367  1  0.76222633  0.62845233  0.37643988  1.0
  Ni  Ni368  1  0.76222633  0.96178567  0.37643987  1.0
  Ni  Ni369  1  0.23777367  0.03821433  0.36155087  1.0
  Ni  Ni370  1  0.23777367  0.37154767  0.36155087  1.0
  Ni  Ni371  1  0.23777367  0.70488100  0.36155087  1.0
  Ni  Ni372  1  0.57110700  0.03821433  0.36155088  1.0
  Ni  Ni373  1  0.57110700  0.37154767  0.36155087  1.0
  Ni  Ni374  1  0.57110700  0.70488100  0.36155087  1.0
  Ni  Ni375  1  0.90444033  0.03821433  0.36155087  1.0
  Ni  Ni376  1  0.90444033  0.37154767  0.36155087  1.0
  Ni  Ni377  1  0.90444033  0.70488100  0.36155087  1.0
  Ni  Ni378  1  0.17176033  0.20576933  0.43291362  1.0
  Ni  Ni379  1  0.17176033  0.53910267  0.43291363  1.0
  Ni  Ni380  1  0.17176033  0.87243600  0.43291362  1.0
  Ni  Ni381  1  0.50509367  0.20576933  0.43291363  1.0
  Ni  Ni382  1  0.50509367  0.53910267  0.43291363  1.0
  Ni  Ni383  1  0.50509367  0.87243600  0.43291363  1.0
  Ni  Ni384  1  0.83842700  0.20576933  0.43291362  1.0
  Ni  Ni385  1  0.83842700  0.53910267  0.43291363  1.0
  Ni  Ni386  1  0.83842700  0.87243600  0.43291363  1.0
  Ni  Ni387  1  0.16157300  0.12756400  0.30507712  1.0
  Ni  Ni388  1  0.16157300  0.46089733  0.30507712  1.0
  Ni  Ni389  1  0.16157300  0.79423067  0.30507712  1.0
  Ni  Ni390  1  0.49490633  0.12756400  0.30507712  1.0
  Ni  Ni391  1  0.49490633  0.46089733  0.30507712  1.0
  Ni  Ni392  1  0.49490633  0.79423067  0.30507712  1.0
  Ni  Ni393  1  0.82823967  0.12756400  0.30507713  1.0
  Ni  Ni394  1  0.82823967  0.46089733  0.30507712  1.0
  Ni  Ni395  1  0.82823967  0.79423067  0.30507713  1.0
  Ni  Ni396  1  0.17176000  0.09739833  0.42542637  1.0
  Ni  Ni397  1  0.17176000  0.43073167  0.42542638  1.0
  Ni  Ni398  1  0.17176000  0.76406500  0.42542638  1.0
  Ni  Ni399  1  0.50509333  0.09739833  0.42542638  1.0
  Ni  Ni400  1  0.50509333  0.43073167  0.42542637  1.0
  Ni  Ni401  1  0.50509333  0.76406500  0.42542637  1.0
  Ni  Ni402  1  0.83842667  0.09739833  0.42542637  1.0
  Ni  Ni403  1  0.83842667  0.43073167  0.42542638  1.0
  Ni  Ni404  1  0.83842667  0.76406500  0.42542638  1.0
  Ni  Ni405  1  0.03307867  0.09325433  0.45545537  1.0
  Ni  Ni406  1  0.03307867  0.42658767  0.45545537  1.0
  Ni  Ni407  1  0.03307867  0.75992100  0.45545537  1.0
  Ni  Ni408  1  0.36641200  0.09325433  0.45545538  1.0
  Ni  Ni409  1  0.36641200  0.42658767  0.45545537  1.0
  Ni  Ni410  1  0.36641200  0.75992100  0.45545538  1.0
  Ni  Ni411  1  0.69974533  0.09325433  0.45545537  1.0
  Ni  Ni412  1  0.69974533  0.42658767  0.45545537  1.0
  Ni  Ni413  1  0.69974533  0.75992100  0.45545537  1.0
  Ni  Ni414  1  0.30025467  0.24007900  0.28253538  1.0
  Ni  Ni415  1  0.30025467  0.57341233  0.28253538  1.0
  Ni  Ni416  1  0.30025467  0.90674567  0.28253537  1.0
  Ni  Ni417  1  0.63358800  0.24007900  0.28253538  1.0
  Ni  Ni418  1  0.63358800  0.57341233  0.28253538  1.0
  Ni  Ni419  1  0.63358800  0.90674567  0.28253538  1.0
  Ni  Ni420  1  0.96692133  0.24007900  0.28253537  1.0
  Ni  Ni421  1  0.96692133  0.57341233  0.28253538  1.0
  Ni  Ni422  1  0.96692133  0.90674567  0.28253538  1.0
  Ni  Ni423  1  0.03971133  0.18505900  0.33113188  1.0
  Ni  Ni424  1  0.03971133  0.51839233  0.33113188  1.0
  Ni  Ni425  1  0.03971133  0.85172567  0.33113188  1.0
  Ni  Ni426  1  0.37304467  0.18505900  0.33113188  1.0
  Ni  Ni427  1  0.37304467  0.51839233  0.33113188  1.0
  Ni  Ni428  1  0.37304467  0.85172567  0.33113188  1.0
  Ni  Ni429  1  0.70637800  0.18505900  0.33113188  1.0
  Ni  Ni430  1  0.70637800  0.51839233  0.33113188  1.0
  Ni  Ni431  1  0.70637800  0.85172567  0.33113187  1.0
  Ni  Ni432  1  0.29362200  0.14827433  0.40685887  1.0
  Ni  Ni433  1  0.29362200  0.48160767  0.40685888  1.0
  Ni  Ni434  1  0.29362200  0.81494100  0.40685887  1.0
  Ni  Ni435  1  0.62695533  0.14827433  0.40685888  1.0
  Ni  Ni436  1  0.62695533  0.48160767  0.40685887  1.0
  Ni  Ni437  1  0.62695533  0.81494100  0.40685887  1.0
  Ni  Ni438  1  0.96028867  0.14827433  0.40685887  1.0
  Ni  Ni439  1  0.96028867  0.48160767  0.40685888  1.0
  Ni  Ni440  1  0.96028867  0.81494100  0.40685887  1.0
  Ni  Ni441  1  0.04541533  0.07091100  0.32959887  1.0
  Ni  Ni442  1  0.04541533  0.40424433  0.32959887  1.0
  Ni  Ni443  1  0.04541533  0.73757767  0.32959887  1.0
  Ni  Ni444  1  0.37874867  0.07091100  0.32959887  1.0
  Ni  Ni445  1  0.37874867  0.40424433  0.32959887  1.0
  Ni  Ni446  1  0.37874867  0.73757767  0.32959887  1.0
  Ni  Ni447  1  0.71208200  0.07091100  0.32959887  1.0
  Ni  Ni448  1  0.71208200  0.40424433  0.32959888  1.0
  Ni  Ni449  1  0.71208200  0.73757767  0.32959887  1.0
  Ni  Ni450  1  0.28791800  0.26242233  0.40839187  1.0
  Ni  Ni451  1  0.28791800  0.59575567  0.40839188  1.0
  Ni  Ni452  1  0.28791800  0.92908900  0.40839187  1.0
  Ni  Ni453  1  0.62125133  0.26242233  0.40839188  1.0
  Ni  Ni454  1  0.62125133  0.59575567  0.40839187  1.0
  Ni  Ni455  1  0.62125133  0.92908900  0.40839188  1.0
  Ni  Ni456  1  0.95458467  0.26242233  0.40839188  1.0
  Ni  Ni457  1  0.95458467  0.59575567  0.40839188  1.0
  Ni  Ni458  1  0.95458467  0.92908900  0.40839187  1.0
  Ni  Ni459  1  0.10113033  0.08176833  0.37935087  1.0
  Ni  Ni460  1  0.10113033  0.41510167  0.37935087  1.0
  Ni  Ni461  1  0.10113033  0.74843500  0.37935088  1.0
  Ni  Ni462  1  0.43446367  0.08176833  0.37935087  1.0
  Ni  Ni463  1  0.43446367  0.41510167  0.37935087  1.0
  Ni  Ni464  1  0.43446367  0.74843500  0.37935087  1.0
  Ni  Ni465  1  0.76779700  0.08176833  0.37935087  1.0
  Ni  Ni466  1  0.76779700  0.41510167  0.37935088  1.0
  Ni  Ni467  1  0.76779700  0.74843500  0.37935087  1.0
  Ni  Ni468  1  0.23220300  0.25156500  0.35863988  1.0
  Ni  Ni469  1  0.23220300  0.58489833  0.35863988  1.0
  Ni  Ni470  1  0.23220300  0.91823167  0.35863988  1.0
  Ni  Ni471  1  0.56553633  0.25156500  0.35863988  1.0
  Ni  Ni472  1  0.56553633  0.58489833  0.35863987  1.0
  Ni  Ni473  1  0.56553633  0.91823167  0.35863987  1.0
  Ni  Ni474  1  0.89886967  0.25156500  0.35863988  1.0
  Ni  Ni475  1  0.89886967  0.58489833  0.35863988  1.0
  Ni  Ni476  1  0.89886967  0.91823167  0.35863988  1.0
  Ni  Ni477  1  0.10547633  0.03295067  0.25293437  1.0
  Ni  Ni478  1  0.10547633  0.36628400  0.25293437  1.0
  Ni  Ni479  1  0.10547633  0.69961733  0.25293437  1.0
  Ni  Ni480  1  0.43880967  0.03295067  0.25293437  1.0
  Ni  Ni481  1  0.43880967  0.36628400  0.25293437  1.0
  Ni  Ni482  1  0.43880967  0.69961733  0.25293438  1.0
  Ni  Ni483  1  0.77214300  0.03295067  0.25293437  1.0
  Ni  Ni484  1  0.77214300  0.36628400  0.25293438  1.0
  Ni  Ni485  1  0.77214300  0.69961733  0.25293437  1.0
  Ni  Ni486  1  0.22785700  0.30038267  0.48505638  1.0
  Ni  Ni487  1  0.22785700  0.63371600  0.48505638  1.0
  Ni  Ni488  1  0.22785700  0.96704933  0.48505637  1.0
  Ni  Ni489  1  0.56119033  0.30038267  0.48505638  1.0
  Ni  Ni490  1  0.56119033  0.63371600  0.48505638  1.0
  Ni  Ni491  1  0.56119033  0.96704933  0.48505637  1.0
  Ni  Ni492  1  0.89452367  0.30038267  0.48505637  1.0
  Ni  Ni493  1  0.89452367  0.63371600  0.48505638  1.0
  Ni  Ni494  1  0.89452367  0.96704933  0.48505638  1.0
  Ni  Ni495  1  0.10585700  0.24794667  0.25600462  1.0
  Ni  Ni496  1  0.10585700  0.58128000  0.25600462  1.0
  Ni  Ni497  1  0.10585700  0.91461333  0.25600462  1.0
  Ni  Ni498  1  0.43919033  0.24794667  0.25600462  1.0
  Ni  Ni499  1  0.43919033  0.58128000  0.25600462  1.0
  Ni  Ni500  1  0.43919033  0.91461333  0.25600462  1.0
  Ni  Ni501  1  0.77252367  0.24794667  0.25600462  1.0
  Ni  Ni502  1  0.77252367  0.58128000  0.25600462  1.0
  Ni  Ni503  1  0.77252367  0.91461333  0.25600462  1.0
  Ni  Ni504  1  0.22747633  0.08538667  0.48198613  1.0
  Ni  Ni505  1  0.22747633  0.41872000  0.48198613  1.0
  Ni  Ni506  1  0.22747633  0.75205333  0.48198612  1.0
  Ni  Ni507  1  0.56080967  0.08538667  0.48198613  1.0
  Ni  Ni508  1  0.56080967  0.41872000  0.48198612  1.0
  Ni  Ni509  1  0.56080967  0.75205333  0.48198612  1.0
  Ni  Ni510  1  0.89414300  0.08538667  0.48198612  1.0
  Ni  Ni511  1  0.89414300  0.41872000  0.48198613  1.0
  Ni  Ni512  1  0.89414300  0.75205333  0.48198612  1.0
  Ni  Ni513  1  0.16157333  0.23593500  0.31256438  1.0
  Ni  Ni514  1  0.16157333  0.56926833  0.31256437  1.0
  Ni  Ni515  1  0.16157333  0.90260167  0.31256438  1.0
  Ni  Ni516  1  0.49490667  0.23593500  0.31256438  1.0
  Ni  Ni517  1  0.49490667  0.56926833  0.31256438  1.0
  Ni  Ni518  1  0.49490667  0.90260167  0.31256438  1.0
  Ni  Ni519  1  0.82824000  0.23593500  0.31256438  1.0
  Ni  Ni520  1  0.82824000  0.56926833  0.31256438  1.0
  Ni  Ni521  1  0.82824000  0.90260167  0.31256437  1.0
