# generated using pymatgen
data_Zr9Ni11
_symmetry_space_group_name_H-M   'P 1'
_cell_length_a   19.42551001
_cell_length_b   35.72274156
_cell_length_c   54.40818628
_cell_angle_alpha   40.00418882
_cell_angle_beta   65.38377018
_cell_angle_gamma   57.05828988
_symmetry_Int_Tables_number   1
_chemical_formula_structural   Zr9Ni11
_chemical_formula_sum   'Zr243 Ni297'
_cell_volume   20368.76997145
_cell_formula_units_Z   27
loop_
 _symmetry_equiv_pos_site_id
 _symmetry_equiv_pos_as_xyz
  1  'x, y, z'
loop_
 _atom_site_type_symbol
 _atom_site_label
 _atom_site_symmetry_multiplicity
 _atom_site_fract_x
 _atom_site_fract_y
 _atom_site_fract_z
 _atom_site_occupancy
  Zr  Zr0  1  0.00000000  0.00000000  0.12991443  1.0
  Zr  Zr1  1  0.00000000  0.33333333  0.12991443  1.0
  Zr  Zr2  1  0.00000000  0.66666667  0.12991443  1.0
  Zr  Zr3  1  0.33333333  0.00000000  0.12991443  1.0
  Zr  Zr4  1  0.33333333  0.33333333  0.12991443  1.0
  Zr  Zr5  1  0.33333333  0.66666667  0.12991443  1.0
  Zr  Zr6  1  0.66666667  0.00000000  0.12991443  1.0
  Zr  Zr7  1  0.66666667  0.33333333  0.12991443  1.0
  Zr  Zr8  1  0.66666667  0.66666667  0.12991443  1.0
  Zr  Zr9  1  0.08251967  0.11242067  0.10567986  1.0
  Zr  Zr10  1  0.08251967  0.44575400  0.10567986  1.0
  Zr  Zr11  1  0.08251967  0.77908733  0.10567986  1.0
  Zr  Zr12  1  0.41585300  0.11242067  0.10567986  1.0
  Zr  Zr13  1  0.41585300  0.44575400  0.10567986  1.0
  Zr  Zr14  1  0.41585300  0.77908733  0.10567986  1.0
  Zr  Zr15  1  0.74918633  0.11242067  0.10567986  1.0
  Zr  Zr16  1  0.74918633  0.44575400  0.10567986  1.0
  Zr  Zr17  1  0.74918633  0.77908733  0.10567986  1.0
  Zr  Zr18  1  0.13839300  0.27746000  0.05918329  1.0
  Zr  Zr19  1  0.13839300  0.61079333  0.05918329  1.0
  Zr  Zr20  1  0.13839300  0.94412667  0.05918329  1.0
  Zr  Zr21  1  0.47172633  0.27746000  0.05918329  1.0
  Zr  Zr22  1  0.47172633  0.61079333  0.05918329  1.0
  Zr  Zr23  1  0.47172633  0.94412667  0.05918329  1.0
  Zr  Zr24  1  0.80505967  0.27746000  0.05918329  1.0
  Zr  Zr25  1  0.80505967  0.61079333  0.05918329  1.0
  Zr  Zr26  1  0.80505967  0.94412667  0.05918329  1.0
  Zr  Zr27  1  0.19494033  0.05587333  0.05778843  1.0
  Zr  Zr28  1  0.19494033  0.38920667  0.05778843  1.0
  Zr  Zr29  1  0.19494033  0.72254000  0.05778843  1.0
  Zr  Zr30  1  0.52827367  0.05587333  0.05778843  1.0
  Zr  Zr31  1  0.52827367  0.38920667  0.05778843  1.0
  Zr  Zr32  1  0.52827367  0.72254000  0.05778843  1.0
  Zr  Zr33  1  0.86160700  0.05587333  0.05778843  1.0
  Zr  Zr34  1  0.86160700  0.38920667  0.05778843  1.0
  Zr  Zr35  1  0.86160700  0.72254000  0.05778843  1.0
  Zr  Zr36  1  0.25081367  0.22091267  0.01129186  1.0
  Zr  Zr37  1  0.25081367  0.55424600  0.01129186  1.0
  Zr  Zr38  1  0.25081367  0.88757933  0.01129186  1.0
  Zr  Zr39  1  0.58414700  0.22091267  0.01129186  1.0
  Zr  Zr40  1  0.58414700  0.55424600  0.01129186  1.0
  Zr  Zr41  1  0.58414700  0.88757933  0.01129186  1.0
  Zr  Zr42  1  0.91748033  0.22091267  0.01129186  1.0
  Zr  Zr43  1  0.91748033  0.55424600  0.01129186  1.0
  Zr  Zr44  1  0.91748033  0.88757933  0.01129186  1.0
  Zr  Zr45  1  0.10377467  0.19935900  0.01294271  1.0
  Zr  Zr46  1  0.10377467  0.53269233  0.01294271  1.0
  Zr  Zr47  1  0.10377467  0.86602567  0.01294271  1.0
  Zr  Zr48  1  0.43710800  0.19935900  0.01294271  1.0
  Zr  Zr49  1  0.43710800  0.53269233  0.01294271  1.0
  Zr  Zr50  1  0.43710800  0.86602567  0.01294271  1.0
  Zr  Zr51  1  0.77044133  0.19935900  0.01294271  1.0
  Zr  Zr52  1  0.77044133  0.53269233  0.01294271  1.0
  Zr  Zr53  1  0.77044133  0.86602567  0.01294271  1.0
  Zr  Zr54  1  0.03019967  0.07357500  0.04096471  1.0
  Zr  Zr55  1  0.03019967  0.40690833  0.04096471  1.0
  Zr  Zr56  1  0.03019967  0.74024167  0.04096471  1.0
  Zr  Zr57  1  0.36353300  0.07357500  0.04096471  1.0
  Zr  Zr58  1  0.36353300  0.40690833  0.04096471  1.0
  Zr  Zr59  1  0.36353300  0.74024167  0.04096471  1.0
  Zr  Zr60  1  0.69686633  0.07357500  0.04096471  1.0
  Zr  Zr61  1  0.69686633  0.40690833  0.04096471  1.0
  Zr  Zr62  1  0.69686633  0.74024167  0.04096471  1.0
  Zr  Zr63  1  0.30313367  0.25975833  0.07600700  1.0
  Zr  Zr64  1  0.30313367  0.59309167  0.07600700  1.0
  Zr  Zr65  1  0.30313367  0.92642500  0.07600700  1.0
  Zr  Zr66  1  0.63646700  0.25975833  0.07600700  1.0
  Zr  Zr67  1  0.63646700  0.59309167  0.07600700  1.0
  Zr  Zr68  1  0.63646700  0.92642500  0.07600700  1.0
  Zr  Zr69  1  0.96980033  0.25975833  0.07600700  1.0
  Zr  Zr70  1  0.96980033  0.59309167  0.07600700  1.0
  Zr  Zr71  1  0.96980033  0.92642500  0.07600700  1.0
  Zr  Zr72  1  0.22955867  0.13397433  0.10402900  1.0
  Zr  Zr73  1  0.22955867  0.46730767  0.10402900  1.0
  Zr  Zr74  1  0.22955867  0.80064100  0.10402900  1.0
  Zr  Zr75  1  0.56289200  0.13397433  0.10402900  1.0
  Zr  Zr76  1  0.56289200  0.46730767  0.10402900  1.0
  Zr  Zr77  1  0.56289200  0.80064100  0.10402900  1.0
  Zr  Zr78  1  0.89622533  0.13397433  0.10402900  1.0
  Zr  Zr79  1  0.89622533  0.46730767  0.10402900  1.0
  Zr  Zr80  1  0.89622533  0.80064100  0.10402900  1.0
  Ni  Ni81  1  0.16666667  0.00000000  0.12991443  1.0
  Ni  Ni82  1  0.16666667  0.33333333  0.12991443  1.0
  Ni  Ni83  1  0.16666667  0.66666667  0.12991443  1.0
  Ni  Ni84  1  0.50000000  0.00000000  0.12991443  1.0
  Ni  Ni85  1  0.50000000  0.33333333  0.12991443  1.0
  Ni  Ni86  1  0.50000000  0.66666667  0.12991443  1.0
  Ni  Ni87  1  0.83333333  0.00000000  0.12991443  1.0
  Ni  Ni88  1  0.83333333  0.33333333  0.12991443  1.0
  Ni  Ni89  1  0.83333333  0.66666667  0.12991443  1.0
  Ni  Ni90  1  0.25000000  0.16666667  0.12991443  1.0
  Ni  Ni91  1  0.25000000  0.50000000  0.12991443  1.0
  Ni  Ni92  1  0.25000000  0.83333333  0.12991443  1.0
  Ni  Ni93  1  0.58333333  0.16666667  0.12991443  1.0
  Ni  Ni94  1  0.58333333  0.50000000  0.12991443  1.0
  Ni  Ni95  1  0.58333333  0.83333333  0.12991443  1.0
  Ni  Ni96  1  0.91666667  0.16666667  0.12991443  1.0
  Ni  Ni97  1  0.91666667  0.50000000  0.12991443  1.0
  Ni  Ni98  1  0.91666667  0.83333333  0.12991443  1.0
  Ni  Ni99  1  0.08333333  0.16666667  0.12991443  1.0
  Ni  Ni100  1  0.08333333  0.50000000  0.12991443  1.0
  Ni  Ni101  1  0.08333333  0.83333333  0.12991443  1.0
  Ni  Ni102  1  0.41666667  0.16666667  0.12991443  1.0
  Ni  Ni103  1  0.41666667  0.50000000  0.12991443  1.0
  Ni  Ni104  1  0.41666667  0.83333333  0.12991443  1.0
  Ni  Ni105  1  0.75000000  0.16666667  0.12991443  1.0
  Ni  Ni106  1  0.75000000  0.50000000  0.12991443  1.0
  Ni  Ni107  1  0.75000000  0.83333333  0.12991443  1.0
  Ni  Ni108  1  0.10818633  0.21911967  0.05098743  1.0
  Ni  Ni109  1  0.10818633  0.55245300  0.05098743  1.0
  Ni  Ni110  1  0.10818633  0.88578633  0.05098743  1.0
  Ni  Ni111  1  0.44151967  0.21911967  0.05098743  1.0
  Ni  Ni112  1  0.44151967  0.55245300  0.05098743  1.0
  Ni  Ni113  1  0.44151967  0.88578633  0.05098743  1.0
  Ni  Ni114  1  0.77485300  0.21911967  0.05098743  1.0
  Ni  Ni115  1  0.77485300  0.55245300  0.05098743  1.0
  Ni  Ni116  1  0.77485300  0.88578633  0.05098743  1.0
  Ni  Ni117  1  0.14314300  0.29837667  0.09594714  1.0
  Ni  Ni118  1  0.14314300  0.63171000  0.09594714  1.0
  Ni  Ni119  1  0.14314300  0.96504333  0.09594714  1.0
  Ni  Ni120  1  0.47647633  0.29837667  0.09594714  1.0
  Ni  Ni121  1  0.47647633  0.63171000  0.09594714  1.0
  Ni  Ni122  1  0.47647633  0.96504333  0.09594714  1.0
  Ni  Ni123  1  0.80980967  0.29837667  0.09594714  1.0
  Ni  Ni124  1  0.80980967  0.63171000  0.09594714  1.0
  Ni  Ni125  1  0.80980967  0.96504333  0.09594714  1.0
  Ni  Ni126  1  0.32730600  0.03495667  0.02102457  1.0
  Ni  Ni127  1  0.32730600  0.36829000  0.02102457  1.0
  Ni  Ni128  1  0.32730600  0.70162333  0.02102457  1.0
  Ni  Ni129  1  0.66063933  0.03495667  0.02102457  1.0
  Ni  Ni130  1  0.66063933  0.36829000  0.02102457  1.0
  Ni  Ni131  1  0.66063933  0.70162333  0.02102457  1.0
  Ni  Ni132  1  0.99397267  0.03495667  0.02102457  1.0
  Ni  Ni133  1  0.99397267  0.36829000  0.02102457  1.0
  Ni  Ni134  1  0.99397267  0.70162333  0.02102457  1.0
  Ni  Ni135  1  0.02892933  0.11421367  0.06598429  1.0
  Ni  Ni136  1  0.02892933  0.44754700  0.06598429  1.0
  Ni  Ni137  1  0.02892933  0.78088033  0.06598429  1.0
  Ni  Ni138  1  0.36226267  0.11421367  0.06598429  1.0
  Ni  Ni139  1  0.36226267  0.44754700  0.06598429  1.0
  Ni  Ni140  1  0.36226267  0.78088033  0.06598429  1.0
  Ni  Ni141  1  0.69559600  0.11421367  0.06598429  1.0
  Ni  Ni142  1  0.69559600  0.44754700  0.06598429  1.0
  Ni  Ni143  1  0.69559600  0.78088033  0.06598429  1.0
  Ni  Ni144  1  0.22514700  0.11421367  0.06598429  1.0
  Ni  Ni145  1  0.22514700  0.44754700  0.06598429  1.0
  Ni  Ni146  1  0.22514700  0.78088033  0.06598429  1.0
  Ni  Ni147  1  0.55848033  0.11421367  0.06598429  1.0
  Ni  Ni148  1  0.55848033  0.44754700  0.06598429  1.0
  Ni  Ni149  1  0.55848033  0.78088033  0.06598429  1.0
  Ni  Ni150  1  0.89181367  0.11421367  0.06598429  1.0
  Ni  Ni151  1  0.89181367  0.44754700  0.06598429  1.0
  Ni  Ni152  1  0.89181367  0.78088033  0.06598429  1.0
  Ni  Ni153  1  0.19019033  0.03495667  0.02102457  1.0
  Ni  Ni154  1  0.19019033  0.36829000  0.02102457  1.0
  Ni  Ni155  1  0.19019033  0.70162333  0.02102457  1.0
  Ni  Ni156  1  0.52352367  0.03495667  0.02102457  1.0
  Ni  Ni157  1  0.52352367  0.36829000  0.02102457  1.0
  Ni  Ni158  1  0.52352367  0.70162333  0.02102457  1.0
  Ni  Ni159  1  0.85685700  0.03495667  0.02102457  1.0
  Ni  Ni160  1  0.85685700  0.36829000  0.02102457  1.0
  Ni  Ni161  1  0.85685700  0.70162333  0.02102457  1.0
  Ni  Ni162  1  0.00602733  0.29837667  0.09594714  1.0
  Ni  Ni163  1  0.00602733  0.63171000  0.09594714  1.0
  Ni  Ni164  1  0.00602733  0.96504333  0.09594714  1.0
  Ni  Ni165  1  0.33936067  0.29837667  0.09594714  1.0
  Ni  Ni166  1  0.33936067  0.63171000  0.09594714  1.0
  Ni  Ni167  1  0.33936067  0.96504333  0.09594714  1.0
  Ni  Ni168  1  0.67269400  0.29837667  0.09594714  1.0
  Ni  Ni169  1  0.67269400  0.63171000  0.09594714  1.0
  Ni  Ni170  1  0.67269400  0.96504333  0.09594714  1.0
  Ni  Ni171  1  0.30440400  0.21911967  0.05098743  1.0
  Ni  Ni172  1  0.30440400  0.55245300  0.05098743  1.0
  Ni  Ni173  1  0.30440400  0.88578633  0.05098743  1.0
  Ni  Ni174  1  0.63773733  0.21911967  0.05098743  1.0
  Ni  Ni175  1  0.63773733  0.55245300  0.05098743  1.0
  Ni  Ni176  1  0.63773733  0.88578633  0.05098743  1.0
  Ni  Ni177  1  0.97107067  0.21911967  0.05098743  1.0
  Ni  Ni178  1  0.97107067  0.55245300  0.05098743  1.0
  Ni  Ni179  1  0.97107067  0.88578633  0.05098743  1.0
  Zr  Zr180  1  0.00000000  0.00000000  0.27277157  1.0
  Zr  Zr181  1  0.00000000  0.33333333  0.27277157  1.0
  Zr  Zr182  1  0.00000000  0.66666667  0.27277157  1.0
  Zr  Zr183  1  0.33333333  0.00000000  0.27277157  1.0
  Zr  Zr184  1  0.33333333  0.33333333  0.27277157  1.0
  Zr  Zr185  1  0.33333333  0.66666667  0.27277157  1.0
  Zr  Zr186  1  0.66666667  0.00000000  0.27277157  1.0
  Zr  Zr187  1  0.66666667  0.33333333  0.27277157  1.0
  Zr  Zr188  1  0.66666667  0.66666667  0.27277157  1.0
  Zr  Zr189  1  0.08251967  0.11242067  0.24853700  1.0
  Zr  Zr190  1  0.08251967  0.44575400  0.24853700  1.0
  Zr  Zr191  1  0.08251967  0.77908733  0.24853700  1.0
  Zr  Zr192  1  0.41585300  0.11242067  0.24853700  1.0
  Zr  Zr193  1  0.41585300  0.44575400  0.24853700  1.0
  Zr  Zr194  1  0.41585300  0.77908733  0.24853700  1.0
  Zr  Zr195  1  0.74918633  0.11242067  0.24853700  1.0
  Zr  Zr196  1  0.74918633  0.44575400  0.24853700  1.0
  Zr  Zr197  1  0.74918633  0.77908733  0.24853700  1.0
  Zr  Zr198  1  0.13839300  0.27746000  0.20204043  1.0
  Zr  Zr199  1  0.13839300  0.61079333  0.20204043  1.0
  Zr  Zr200  1  0.13839300  0.94412667  0.20204043  1.0
  Zr  Zr201  1  0.47172633  0.27746000  0.20204043  1.0
  Zr  Zr202  1  0.47172633  0.61079333  0.20204043  1.0
  Zr  Zr203  1  0.47172633  0.94412667  0.20204043  1.0
  Zr  Zr204  1  0.80505967  0.27746000  0.20204043  1.0
  Zr  Zr205  1  0.80505967  0.61079333  0.20204043  1.0
  Zr  Zr206  1  0.80505967  0.94412667  0.20204043  1.0
  Zr  Zr207  1  0.19494033  0.05587333  0.20064557  1.0
  Zr  Zr208  1  0.19494033  0.38920667  0.20064557  1.0
  Zr  Zr209  1  0.19494033  0.72254000  0.20064557  1.0
  Zr  Zr210  1  0.52827367  0.05587333  0.20064557  1.0
  Zr  Zr211  1  0.52827367  0.38920667  0.20064557  1.0
  Zr  Zr212  1  0.52827367  0.72254000  0.20064557  1.0
  Zr  Zr213  1  0.86160700  0.05587333  0.20064557  1.0
  Zr  Zr214  1  0.86160700  0.38920667  0.20064557  1.0
  Zr  Zr215  1  0.86160700  0.72254000  0.20064557  1.0
  Zr  Zr216  1  0.25081367  0.22091267  0.15414900  1.0
  Zr  Zr217  1  0.25081367  0.55424600  0.15414900  1.0
  Zr  Zr218  1  0.25081367  0.88757933  0.15414900  1.0
  Zr  Zr219  1  0.58414700  0.22091267  0.15414900  1.0
  Zr  Zr220  1  0.58414700  0.55424600  0.15414900  1.0
  Zr  Zr221  1  0.58414700  0.88757933  0.15414900  1.0
  Zr  Zr222  1  0.91748033  0.22091267  0.15414900  1.0
  Zr  Zr223  1  0.91748033  0.55424600  0.15414900  1.0
  Zr  Zr224  1  0.91748033  0.88757933  0.15414900  1.0
  Zr  Zr225  1  0.10377467  0.19935900  0.15579986  1.0
  Zr  Zr226  1  0.10377467  0.53269233  0.15579986  1.0
  Zr  Zr227  1  0.10377467  0.86602567  0.15579986  1.0
  Zr  Zr228  1  0.43710800  0.19935900  0.15579986  1.0
  Zr  Zr229  1  0.43710800  0.53269233  0.15579986  1.0
  Zr  Zr230  1  0.43710800  0.86602567  0.15579986  1.0
  Zr  Zr231  1  0.77044133  0.19935900  0.15579986  1.0
  Zr  Zr232  1  0.77044133  0.53269233  0.15579986  1.0
  Zr  Zr233  1  0.77044133  0.86602567  0.15579986  1.0
  Zr  Zr234  1  0.03019967  0.07357500  0.18382186  1.0
  Zr  Zr235  1  0.03019967  0.40690833  0.18382186  1.0
  Zr  Zr236  1  0.03019967  0.74024167  0.18382186  1.0
  Zr  Zr237  1  0.36353300  0.07357500  0.18382186  1.0
  Zr  Zr238  1  0.36353300  0.40690833  0.18382186  1.0
  Zr  Zr239  1  0.36353300  0.74024167  0.18382186  1.0
  Zr  Zr240  1  0.69686633  0.07357500  0.18382186  1.0
  Zr  Zr241  1  0.69686633  0.40690833  0.18382186  1.0
  Zr  Zr242  1  0.69686633  0.74024167  0.18382186  1.0
  Zr  Zr243  1  0.30313367  0.25975833  0.21886414  1.0
  Zr  Zr244  1  0.30313367  0.59309167  0.21886414  1.0
  Zr  Zr245  1  0.30313367  0.92642500  0.21886414  1.0
  Zr  Zr246  1  0.63646700  0.25975833  0.21886414  1.0
  Zr  Zr247  1  0.63646700  0.59309167  0.21886414  1.0
  Zr  Zr248  1  0.63646700  0.92642500  0.21886414  1.0
  Zr  Zr249  1  0.96980033  0.25975833  0.21886414  1.0
  Zr  Zr250  1  0.96980033  0.59309167  0.21886414  1.0
  Zr  Zr251  1  0.96980033  0.92642500  0.21886414  1.0
  Zr  Zr252  1  0.22955867  0.13397433  0.24688614  1.0
  Zr  Zr253  1  0.22955867  0.46730767  0.24688614  1.0
  Zr  Zr254  1  0.22955867  0.80064100  0.24688614  1.0
  Zr  Zr255  1  0.56289200  0.13397433  0.24688614  1.0
  Zr  Zr256  1  0.56289200  0.46730767  0.24688614  1.0
  Zr  Zr257  1  0.56289200  0.80064100  0.24688614  1.0
  Zr  Zr258  1  0.89622533  0.13397433  0.24688614  1.0
  Zr  Zr259  1  0.89622533  0.46730767  0.24688614  1.0
  Zr  Zr260  1  0.89622533  0.80064100  0.24688614  1.0
  Ni  Ni261  1  0.16666667  0.00000000  0.27277157  1.0
  Ni  Ni262  1  0.16666667  0.33333333  0.27277157  1.0
  Ni  Ni263  1  0.16666667  0.66666667  0.27277157  1.0
  Ni  Ni264  1  0.50000000  0.00000000  0.27277157  1.0
  Ni  Ni265  1  0.50000000  0.33333333  0.27277157  1.0
  Ni  Ni266  1  0.50000000  0.66666667  0.27277157  1.0
  Ni  Ni267  1  0.83333333  0.00000000  0.27277157  1.0
  Ni  Ni268  1  0.83333333  0.33333333  0.27277157  1.0
  Ni  Ni269  1  0.83333333  0.66666667  0.27277157  1.0
  Ni  Ni270  1  0.25000000  0.16666667  0.27277157  1.0
  Ni  Ni271  1  0.25000000  0.50000000  0.27277157  1.0
  Ni  Ni272  1  0.25000000  0.83333333  0.27277157  1.0
  Ni  Ni273  1  0.58333333  0.16666667  0.27277157  1.0
  Ni  Ni274  1  0.58333333  0.50000000  0.27277157  1.0
  Ni  Ni275  1  0.58333333  0.83333333  0.27277157  1.0
  Ni  Ni276  1  0.91666667  0.16666667  0.27277157  1.0
  Ni  Ni277  1  0.91666667  0.50000000  0.27277157  1.0
  Ni  Ni278  1  0.91666667  0.83333333  0.27277157  1.0
  Ni  Ni279  1  0.08333333  0.16666667  0.27277157  1.0
  Ni  Ni280  1  0.08333333  0.50000000  0.27277157  1.0
  Ni  Ni281  1  0.08333333  0.83333333  0.27277157  1.0
  Ni  Ni282  1  0.41666667  0.16666667  0.27277157  1.0
  Ni  Ni283  1  0.41666667  0.50000000  0.27277157  1.0
  Ni  Ni284  1  0.41666667  0.83333333  0.27277157  1.0
  Ni  Ni285  1  0.75000000  0.16666667  0.27277157  1.0
  Ni  Ni286  1  0.75000000  0.50000000  0.27277157  1.0
  Ni  Ni287  1  0.75000000  0.83333333  0.27277157  1.0
  Ni  Ni288  1  0.10818633  0.21911967  0.19384457  1.0
  Ni  Ni289  1  0.10818633  0.55245300  0.19384457  1.0
  Ni  Ni290  1  0.10818633  0.88578633  0.19384457  1.0
  Ni  Ni291  1  0.44151967  0.21911967  0.19384457  1.0
  Ni  Ni292  1  0.44151967  0.55245300  0.19384457  1.0
  Ni  Ni293  1  0.44151967  0.88578633  0.19384457  1.0
  Ni  Ni294  1  0.77485300  0.21911967  0.19384457  1.0
  Ni  Ni295  1  0.77485300  0.55245300  0.19384457  1.0
  Ni  Ni296  1  0.77485300  0.88578633  0.19384457  1.0
  Ni  Ni297  1  0.14314300  0.29837667  0.23880429  1.0
  Ni  Ni298  1  0.14314300  0.63171000  0.23880429  1.0
  Ni  Ni299  1  0.14314300  0.96504333  0.23880429  1.0
  Ni  Ni300  1  0.47647633  0.29837667  0.23880429  1.0
  Ni  Ni301  1  0.47647633  0.63171000  0.23880429  1.0
  Ni  Ni302  1  0.47647633  0.96504333  0.23880429  1.0
  Ni  Ni303  1  0.80980967  0.29837667  0.23880429  1.0
  Ni  Ni304  1  0.80980967  0.63171000  0.23880429  1.0
  Ni  Ni305  1  0.80980967  0.96504333  0.23880429  1.0
  Ni  Ni306  1  0.32730600  0.03495667  0.16388171  1.0
  Ni  Ni307  1  0.32730600  0.36829000  0.16388171  1.0
  Ni  Ni308  1  0.32730600  0.70162333  0.16388171  1.0
  Ni  Ni309  1  0.66063933  0.03495667  0.16388171  1.0
  Ni  Ni310  1  0.66063933  0.36829000  0.16388171  1.0
  Ni  Ni311  1  0.66063933  0.70162333  0.16388171  1.0
  Ni  Ni312  1  0.99397267  0.03495667  0.16388171  1.0
  Ni  Ni313  1  0.99397267  0.36829000  0.16388171  1.0
  Ni  Ni314  1  0.99397267  0.70162333  0.16388171  1.0
  Ni  Ni315  1  0.02892933  0.11421367  0.20884143  1.0
  Ni  Ni316  1  0.02892933  0.44754700  0.20884143  1.0
  Ni  Ni317  1  0.02892933  0.78088033  0.20884143  1.0
  Ni  Ni318  1  0.36226267  0.11421367  0.20884143  1.0
  Ni  Ni319  1  0.36226267  0.44754700  0.20884143  1.0
  Ni  Ni320  1  0.36226267  0.78088033  0.20884143  1.0
  Ni  Ni321  1  0.69559600  0.11421367  0.20884143  1.0
  Ni  Ni322  1  0.69559600  0.44754700  0.20884143  1.0
  Ni  Ni323  1  0.69559600  0.78088033  0.20884143  1.0
  Ni  Ni324  1  0.22514700  0.11421367  0.20884143  1.0
  Ni  Ni325  1  0.22514700  0.44754700  0.20884143  1.0
  Ni  Ni326  1  0.22514700  0.78088033  0.20884143  1.0
  Ni  Ni327  1  0.55848033  0.11421367  0.20884143  1.0
  Ni  Ni328  1  0.55848033  0.44754700  0.20884143  1.0
  Ni  Ni329  1  0.55848033  0.78088033  0.20884143  1.0
  Ni  Ni330  1  0.89181367  0.11421367  0.20884143  1.0
  Ni  Ni331  1  0.89181367  0.44754700  0.20884143  1.0
  Ni  Ni332  1  0.89181367  0.78088033  0.20884143  1.0
  Ni  Ni333  1  0.19019033  0.03495667  0.16388171  1.0
  Ni  Ni334  1  0.19019033  0.36829000  0.16388171  1.0
  Ni  Ni335  1  0.19019033  0.70162333  0.16388171  1.0
  Ni  Ni336  1  0.52352367  0.03495667  0.16388171  1.0
  Ni  Ni337  1  0.52352367  0.36829000  0.16388171  1.0
  Ni  Ni338  1  0.52352367  0.70162333  0.16388171  1.0
  Ni  Ni339  1  0.85685700  0.03495667  0.16388171  1.0
  Ni  Ni340  1  0.85685700  0.36829000  0.16388171  1.0
  Ni  Ni341  1  0.85685700  0.70162333  0.16388171  1.0
  Ni  Ni342  1  0.00602733  0.29837667  0.23880429  1.0
  Ni  Ni343  1  0.00602733  0.63171000  0.23880429  1.0
  Ni  Ni344  1  0.00602733  0.96504333  0.23880429  1.0
  Ni  Ni345  1  0.33936067  0.29837667  0.23880429  1.0
  Ni  Ni346  1  0.33936067  0.63171000  0.23880429  1.0
  Ni  Ni347  1  0.33936067  0.96504333  0.23880429  1.0
  Ni  Ni348  1  0.67269400  0.29837667  0.23880429  1.0
  Ni  Ni349  1  0.67269400  0.63171000  0.23880429  1.0
  Ni  Ni350  1  0.67269400  0.96504333  0.23880429  1.0
  Ni  Ni351  1  0.30440400  0.21911967  0.19384457  1.0
  Ni  Ni352  1  0.30440400  0.55245300  0.19384457  1.0
  Ni  Ni353  1  0.30440400  0.88578633  0.19384457  1.0
  Ni  Ni354  1  0.63773733  0.21911967  0.19384457  1.0
  Ni  Ni355  1  0.63773733  0.55245300  0.19384457  1.0
  Ni  Ni356  1  0.63773733  0.88578633  0.19384457  1.0
  Ni  Ni357  1  0.97107067  0.21911967  0.19384457  1.0
  Ni  Ni358  1  0.97107067  0.55245300  0.19384457  1.0
  Ni  Ni359  1  0.97107067  0.88578633  0.19384457  1.0
  Zr  Zr360  1  0.00000000  0.00000000  0.41562871  1.0
  Zr  Zr361  1  0.00000000  0.33333333  0.41562871  1.0
  Zr  Zr362  1  0.00000000  0.66666667  0.41562871  1.0
  Zr  Zr363  1  0.33333333  0.00000000  0.41562871  1.0
  Zr  Zr364  1  0.33333333  0.33333333  0.41562871  1.0
  Zr  Zr365  1  0.33333333  0.66666667  0.41562871  1.0
  Zr  Zr366  1  0.66666667  0.00000000  0.41562871  1.0
  Zr  Zr367  1  0.66666667  0.33333333  0.41562871  1.0
  Zr  Zr368  1  0.66666667  0.66666667  0.41562871  1.0
  Zr  Zr369  1  0.08251967  0.11242067  0.39139414  1.0
  Zr  Zr370  1  0.08251967  0.44575400  0.39139414  1.0
  Zr  Zr371  1  0.08251967  0.77908733  0.39139414  1.0
  Zr  Zr372  1  0.41585300  0.11242067  0.39139414  1.0
  Zr  Zr373  1  0.41585300  0.44575400  0.39139414  1.0
  Zr  Zr374  1  0.41585300  0.77908733  0.39139414  1.0
  Zr  Zr375  1  0.74918633  0.11242067  0.39139414  1.0
  Zr  Zr376  1  0.74918633  0.44575400  0.39139414  1.0
  Zr  Zr377  1  0.74918633  0.77908733  0.39139414  1.0
  Zr  Zr378  1  0.13839300  0.27746000  0.34489757  1.0
  Zr  Zr379  1  0.13839300  0.61079333  0.34489757  1.0
  Zr  Zr380  1  0.13839300  0.94412667  0.34489757  1.0
  Zr  Zr381  1  0.47172633  0.27746000  0.34489757  1.0
  Zr  Zr382  1  0.47172633  0.61079333  0.34489757  1.0
  Zr  Zr383  1  0.47172633  0.94412667  0.34489757  1.0
  Zr  Zr384  1  0.80505967  0.27746000  0.34489757  1.0
  Zr  Zr385  1  0.80505967  0.61079333  0.34489757  1.0
  Zr  Zr386  1  0.80505967  0.94412667  0.34489757  1.0
  Zr  Zr387  1  0.19494033  0.05587333  0.34350271  1.0
  Zr  Zr388  1  0.19494033  0.38920667  0.34350271  1.0
  Zr  Zr389  1  0.19494033  0.72254000  0.34350271  1.0
  Zr  Zr390  1  0.52827367  0.05587333  0.34350271  1.0
  Zr  Zr391  1  0.52827367  0.38920667  0.34350271  1.0
  Zr  Zr392  1  0.52827367  0.72254000  0.34350271  1.0
  Zr  Zr393  1  0.86160700  0.05587333  0.34350271  1.0
  Zr  Zr394  1  0.86160700  0.38920667  0.34350271  1.0
  Zr  Zr395  1  0.86160700  0.72254000  0.34350271  1.0
  Zr  Zr396  1  0.25081367  0.22091267  0.29700614  1.0
  Zr  Zr397  1  0.25081367  0.55424600  0.29700614  1.0
  Zr  Zr398  1  0.25081367  0.88757933  0.29700614  1.0
  Zr  Zr399  1  0.58414700  0.22091267  0.29700614  1.0
  Zr  Zr400  1  0.58414700  0.55424600  0.29700614  1.0
  Zr  Zr401  1  0.58414700  0.88757933  0.29700614  1.0
  Zr  Zr402  1  0.91748033  0.22091267  0.29700614  1.0
  Zr  Zr403  1  0.91748033  0.55424600  0.29700614  1.0
  Zr  Zr404  1  0.91748033  0.88757933  0.29700614  1.0
  Zr  Zr405  1  0.10377467  0.19935900  0.29865700  1.0
  Zr  Zr406  1  0.10377467  0.53269233  0.29865700  1.0
  Zr  Zr407  1  0.10377467  0.86602567  0.29865700  1.0
  Zr  Zr408  1  0.43710800  0.19935900  0.29865700  1.0
  Zr  Zr409  1  0.43710800  0.53269233  0.29865700  1.0
  Zr  Zr410  1  0.43710800  0.86602567  0.29865700  1.0
  Zr  Zr411  1  0.77044133  0.19935900  0.29865700  1.0
  Zr  Zr412  1  0.77044133  0.53269233  0.29865700  1.0
  Zr  Zr413  1  0.77044133  0.86602567  0.29865700  1.0
  Zr  Zr414  1  0.03019967  0.07357500  0.32667900  1.0
  Zr  Zr415  1  0.03019967  0.40690833  0.32667900  1.0
  Zr  Zr416  1  0.03019967  0.74024167  0.32667900  1.0
  Zr  Zr417  1  0.36353300  0.07357500  0.32667900  1.0
  Zr  Zr418  1  0.36353300  0.40690833  0.32667900  1.0
  Zr  Zr419  1  0.36353300  0.74024167  0.32667900  1.0
  Zr  Zr420  1  0.69686633  0.07357500  0.32667900  1.0
  Zr  Zr421  1  0.69686633  0.40690833  0.32667900  1.0
  Zr  Zr422  1  0.69686633  0.74024167  0.32667900  1.0
  Zr  Zr423  1  0.30313367  0.25975833  0.36172129  1.0
  Zr  Zr424  1  0.30313367  0.59309167  0.36172129  1.0
  Zr  Zr425  1  0.30313367  0.92642500  0.36172129  1.0
  Zr  Zr426  1  0.63646700  0.25975833  0.36172129  1.0
  Zr  Zr427  1  0.63646700  0.59309167  0.36172129  1.0
  Zr  Zr428  1  0.63646700  0.92642500  0.36172129  1.0
  Zr  Zr429  1  0.96980033  0.25975833  0.36172129  1.0
  Zr  Zr430  1  0.96980033  0.59309167  0.36172129  1.0
  Zr  Zr431  1  0.96980033  0.92642500  0.36172129  1.0
  Zr  Zr432  1  0.22955867  0.13397433  0.38974329  1.0
  Zr  Zr433  1  0.22955867  0.46730767  0.38974329  1.0
  Zr  Zr434  1  0.22955867  0.80064100  0.38974329  1.0
  Zr  Zr435  1  0.56289200  0.13397433  0.38974329  1.0
  Zr  Zr436  1  0.56289200  0.46730767  0.38974329  1.0
  Zr  Zr437  1  0.56289200  0.80064100  0.38974329  1.0
  Zr  Zr438  1  0.89622533  0.13397433  0.38974329  1.0
  Zr  Zr439  1  0.89622533  0.46730767  0.38974329  1.0
  Zr  Zr440  1  0.89622533  0.80064100  0.38974329  1.0
  Ni  Ni441  1  0.16666667  0.00000000  0.41562871  1.0
  Ni  Ni442  1  0.16666667  0.33333333  0.41562871  1.0
  Ni  Ni443  1  0.16666667  0.66666667  0.41562871  1.0
  Ni  Ni444  1  0.50000000  0.00000000  0.41562871  1.0
  Ni  Ni445  1  0.50000000  0.33333333  0.41562871  1.0
  Ni  Ni446  1  0.50000000  0.66666667  0.41562871  1.0
  Ni  Ni447  1  0.83333333  0.00000000  0.41562871  1.0
  Ni  Ni448  1  0.83333333  0.33333333  0.41562871  1.0
  Ni  Ni449  1  0.83333333  0.66666667  0.41562871  1.0
  Ni  Ni450  1  0.25000000  0.16666667  0.41562871  1.0
  Ni  Ni451  1  0.25000000  0.50000000  0.41562871  1.0
  Ni  Ni452  1  0.25000000  0.83333333  0.41562871  1.0
  Ni  Ni453  1  0.58333333  0.16666667  0.41562871  1.0
  Ni  Ni454  1  0.58333333  0.50000000  0.41562871  1.0
  Ni  Ni455  1  0.58333333  0.83333333  0.41562871  1.0
  Ni  Ni456  1  0.91666667  0.16666667  0.41562871  1.0
  Ni  Ni457  1  0.91666667  0.50000000  0.41562871  1.0
  Ni  Ni458  1  0.91666667  0.83333333  0.41562871  1.0
  Ni  Ni459  1  0.08333333  0.16666667  0.41562871  1.0
  Ni  Ni460  1  0.08333333  0.50000000  0.41562871  1.0
  Ni  Ni461  1  0.08333333  0.83333333  0.41562871  1.0
  Ni  Ni462  1  0.41666667  0.16666667  0.41562871  1.0
  Ni  Ni463  1  0.41666667  0.50000000  0.41562871  1.0
  Ni  Ni464  1  0.41666667  0.83333333  0.41562871  1.0
  Ni  Ni465  1  0.75000000  0.16666667  0.41562871  1.0
  Ni  Ni466  1  0.75000000  0.50000000  0.41562871  1.0
  Ni  Ni467  1  0.75000000  0.83333333  0.41562871  1.0
  Ni  Ni468  1  0.10818633  0.21911967  0.33670171  1.0
  Ni  Ni469  1  0.10818633  0.55245300  0.33670171  1.0
  Ni  Ni470  1  0.10818633  0.88578633  0.33670171  1.0
  Ni  Ni471  1  0.44151967  0.21911967  0.33670171  1.0
  Ni  Ni472  1  0.44151967  0.55245300  0.33670171  1.0
  Ni  Ni473  1  0.44151967  0.88578633  0.33670171  1.0
  Ni  Ni474  1  0.77485300  0.21911967  0.33670171  1.0
  Ni  Ni475  1  0.77485300  0.55245300  0.33670171  1.0
  Ni  Ni476  1  0.77485300  0.88578633  0.33670171  1.0
  Ni  Ni477  1  0.14314300  0.29837667  0.38166143  1.0
  Ni  Ni478  1  0.14314300  0.63171000  0.38166143  1.0
  Ni  Ni479  1  0.14314300  0.96504333  0.38166143  1.0
  Ni  Ni480  1  0.47647633  0.29837667  0.38166143  1.0
  Ni  Ni481  1  0.47647633  0.63171000  0.38166143  1.0
  Ni  Ni482  1  0.47647633  0.96504333  0.38166143  1.0
  Ni  Ni483  1  0.80980967  0.29837667  0.38166143  1.0
  Ni  Ni484  1  0.80980967  0.63171000  0.38166143  1.0
  Ni  Ni485  1  0.80980967  0.96504333  0.38166143  1.0
  Ni  Ni486  1  0.32730600  0.03495667  0.30673886  1.0
  Ni  Ni487  1  0.32730600  0.36829000  0.30673886  1.0
  Ni  Ni488  1  0.32730600  0.70162333  0.30673886  1.0
  Ni  Ni489  1  0.66063933  0.03495667  0.30673886  1.0
  Ni  Ni490  1  0.66063933  0.36829000  0.30673886  1.0
  Ni  Ni491  1  0.66063933  0.70162333  0.30673886  1.0
  Ni  Ni492  1  0.99397267  0.03495667  0.30673886  1.0
  Ni  Ni493  1  0.99397267  0.36829000  0.30673886  1.0
  Ni  Ni494  1  0.99397267  0.70162333  0.30673886  1.0
  Ni  Ni495  1  0.02892933  0.11421367  0.35169857  1.0
  Ni  Ni496  1  0.02892933  0.44754700  0.35169857  1.0
  Ni  Ni497  1  0.02892933  0.78088033  0.35169857  1.0
  Ni  Ni498  1  0.36226267  0.11421367  0.35169857  1.0
  Ni  Ni499  1  0.36226267  0.44754700  0.35169857  1.0
  Ni  Ni500  1  0.36226267  0.78088033  0.35169857  1.0
  Ni  Ni501  1  0.69559600  0.11421367  0.35169857  1.0
  Ni  Ni502  1  0.69559600  0.44754700  0.35169857  1.0
  Ni  Ni503  1  0.69559600  0.78088033  0.35169857  1.0
  Ni  Ni504  1  0.22514700  0.11421367  0.35169857  1.0
  Ni  Ni505  1  0.22514700  0.44754700  0.35169857  1.0
  Ni  Ni506  1  0.22514700  0.78088033  0.35169857  1.0
  Ni  Ni507  1  0.55848033  0.11421367  0.35169857  1.0
  Ni  Ni508  1  0.55848033  0.44754700  0.35169857  1.0
  Ni  Ni509  1  0.55848033  0.78088033  0.35169857  1.0
  Ni  Ni510  1  0.89181367  0.11421367  0.35169857  1.0
  Ni  Ni511  1  0.89181367  0.44754700  0.35169857  1.0
  Ni  Ni512  1  0.89181367  0.78088033  0.35169857  1.0
  Ni  Ni513  1  0.19019033  0.03495667  0.30673886  1.0
  Ni  Ni514  1  0.19019033  0.36829000  0.30673886  1.0
  Ni  Ni515  1  0.19019033  0.70162333  0.30673886  1.0
  Ni  Ni516  1  0.52352367  0.03495667  0.30673886  1.0
  Ni  Ni517  1  0.52352367  0.36829000  0.30673886  1.0
  Ni  Ni518  1  0.52352367  0.70162333  0.30673886  1.0
  Ni  Ni519  1  0.85685700  0.03495667  0.30673886  1.0
  Ni  Ni520  1  0.85685700  0.36829000  0.30673886  1.0
  Ni  Ni521  1  0.85685700  0.70162333  0.30673886  1.0
  Ni  Ni522  1  0.00602733  0.29837667  0.38166143  1.0
  Ni  Ni523  1  0.00602733  0.63171000  0.38166143  1.0
  Ni  Ni524  1  0.00602733  0.96504333  0.38166143  1.0
  Ni  Ni525  1  0.33936067  0.29837667  0.38166143  1.0
  Ni  Ni526  1  0.33936067  0.63171000  0.38166143  1.0
  Ni  Ni527  1  0.33936067  0.96504333  0.38166143  1.0
  Ni  Ni528  1  0.67269400  0.29837667  0.38166143  1.0
  Ni  Ni529  1  0.67269400  0.63171000  0.38166143  1.0
  Ni  Ni530  1  0.67269400  0.96504333  0.38166143  1.0
  Ni  Ni531  1  0.30440400  0.21911967  0.33670171  1.0
  Ni  Ni532  1  0.30440400  0.55245300  0.33670171  1.0
  Ni  Ni533  1  0.30440400  0.88578633  0.33670171  1.0
  Ni  Ni534  1  0.63773733  0.21911967  0.33670171  1.0
  Ni  Ni535  1  0.63773733  0.55245300  0.33670171  1.0
  Ni  Ni536  1  0.63773733  0.88578633  0.33670171  1.0
  Ni  Ni537  1  0.97107067  0.21911967  0.33670171  1.0
  Ni  Ni538  1  0.97107067  0.55245300  0.33670171  1.0
  Ni  Ni539  1  0.97107067  0.88578633  0.33670171  1.0
