# generated using pymatgen
data_Zr9Ni11
_symmetry_space_group_name_H-M   'P 1'
_cell_length_a   23.31779412
_cell_length_b   19.42551001
_cell_length_c   38.86299020
_cell_angle_alpha   65.38377018
_cell_angle_beta   99.99162236
_cell_angle_gamma   114.61622983
_symmetry_Int_Tables_number   1
_chemical_formula_structural   Zr9Ni11
_chemical_formula_sum   'Zr162 Ni198'
_cell_volume   14549.12140818
_cell_formula_units_Z   18
loop_
 _symmetry_equiv_pos_site_id
 _symmetry_equiv_pos_as_xyz
  1  'x, y, z'
loop_
 _atom_site_type_symbol
 _atom_site_label
 _atom_site_symmetry_multiplicity
 _atom_site_fract_x
 _atom_site_fract_y
 _atom_site_fract_z
 _atom_site_occupancy
  Zr  Zr0  1  0.00000000  0.00000000  0.18951300  1.0
  Zr  Zr1  1  0.00000000  0.33333333  0.18951300  1.0
  Zr  Zr2  1  0.00000000  0.66666667  0.18951300  1.0
  Zr  Zr3  1  0.33333333  0.00000000  0.18951300  1.0
  Zr  Zr4  1  0.33333333  0.33333333  0.18951300  1.0
  Zr  Zr5  1  0.33333333  0.66666667  0.18951300  1.0
  Zr  Zr6  1  0.66666667  0.00000000  0.18951300  1.0
  Zr  Zr7  1  0.66666667  0.33333333  0.18951300  1.0
  Zr  Zr8  1  0.66666667  0.66666667  0.18951300  1.0
  Zr  Zr9  1  0.22091267  0.08251967  0.02303700  1.0
  Zr  Zr10  1  0.22091267  0.41585300  0.02303700  1.0
  Zr  Zr11  1  0.22091267  0.74918633  0.02303700  1.0
  Zr  Zr12  1  0.55424600  0.08251967  0.02303700  1.0
  Zr  Zr13  1  0.55424600  0.41585300  0.02303700  1.0
  Zr  Zr14  1  0.55424600  0.74918633  0.02303700  1.0
  Zr  Zr15  1  0.88757933  0.08251967  0.02303700  1.0
  Zr  Zr16  1  0.88757933  0.41585300  0.02303700  1.0
  Zr  Zr17  1  0.88757933  0.74918633  0.02303700  1.0
  Zr  Zr18  1  0.05587333  0.13839300  0.05696540  1.0
  Zr  Zr19  1  0.05587333  0.47172633  0.05696540  1.0
  Zr  Zr20  1  0.05587333  0.80505967  0.05696540  1.0
  Zr  Zr21  1  0.38920667  0.13839300  0.05696540  1.0
  Zr  Zr22  1  0.38920667  0.47172633  0.05696540  1.0
  Zr  Zr23  1  0.38920667  0.80505967  0.05696540  1.0
  Zr  Zr24  1  0.72254000  0.13839300  0.05696540  1.0
  Zr  Zr25  1  0.72254000  0.47172633  0.05696540  1.0
  Zr  Zr26  1  0.72254000  0.80505967  0.05696540  1.0
  Zr  Zr27  1  0.27746000  0.19494033  0.12206060  1.0
  Zr  Zr28  1  0.27746000  0.52827367  0.12206060  1.0
  Zr  Zr29  1  0.27746000  0.86160700  0.12206060  1.0
  Zr  Zr30  1  0.61079333  0.19494033  0.12206060  1.0
  Zr  Zr31  1  0.61079333  0.52827367  0.12206060  1.0
  Zr  Zr32  1  0.61079333  0.86160700  0.12206060  1.0
  Zr  Zr33  1  0.94412667  0.19494033  0.12206060  1.0
  Zr  Zr34  1  0.94412667  0.52827367  0.12206060  1.0
  Zr  Zr35  1  0.94412667  0.86160700  0.12206060  1.0
  Zr  Zr36  1  0.11242067  0.25081367  0.15598900  1.0
  Zr  Zr37  1  0.11242067  0.58414700  0.15598900  1.0
  Zr  Zr38  1  0.11242067  0.91748033  0.15598900  1.0
  Zr  Zr39  1  0.44575400  0.25081367  0.15598900  1.0
  Zr  Zr40  1  0.44575400  0.58414700  0.15598900  1.0
  Zr  Zr41  1  0.44575400  0.91748033  0.15598900  1.0
  Zr  Zr42  1  0.77908733  0.25081367  0.15598900  1.0
  Zr  Zr43  1  0.77908733  0.58414700  0.15598900  1.0
  Zr  Zr44  1  0.77908733  0.91748033  0.15598900  1.0
  Zr  Zr45  1  0.13397433  0.10377467  0.14536800  1.0
  Zr  Zr46  1  0.13397433  0.43710800  0.14536800  1.0
  Zr  Zr47  1  0.13397433  0.77044133  0.14536800  1.0
  Zr  Zr48  1  0.46730767  0.10377467  0.14536800  1.0
  Zr  Zr49  1  0.46730767  0.43710800  0.14536800  1.0
  Zr  Zr50  1  0.46730767  0.77044133  0.14536800  1.0
  Zr  Zr51  1  0.80064100  0.10377467  0.14536800  1.0
  Zr  Zr52  1  0.80064100  0.43710800  0.14536800  1.0
  Zr  Zr53  1  0.80064100  0.77044133  0.14536800  1.0
  Zr  Zr54  1  0.25975833  0.03019967  0.10912840  1.0
  Zr  Zr55  1  0.25975833  0.36353300  0.10912840  1.0
  Zr  Zr56  1  0.25975833  0.69686633  0.10912840  1.0
  Zr  Zr57  1  0.59309167  0.03019967  0.10912840  1.0
  Zr  Zr58  1  0.59309167  0.36353300  0.10912840  1.0
  Zr  Zr59  1  0.59309167  0.69686633  0.10912840  1.0
  Zr  Zr60  1  0.92642500  0.03019967  0.10912840  1.0
  Zr  Zr61  1  0.92642500  0.36353300  0.10912840  1.0
  Zr  Zr62  1  0.92642500  0.69686633  0.10912840  1.0
  Zr  Zr63  1  0.07357500  0.30313367  0.06989760  1.0
  Zr  Zr64  1  0.07357500  0.63646700  0.06989760  1.0
  Zr  Zr65  1  0.07357500  0.96980033  0.06989760  1.0
  Zr  Zr66  1  0.40690833  0.30313367  0.06989760  1.0
  Zr  Zr67  1  0.40690833  0.63646700  0.06989760  1.0
  Zr  Zr68  1  0.40690833  0.96980033  0.06989760  1.0
  Zr  Zr69  1  0.74024167  0.30313367  0.06989760  1.0
  Zr  Zr70  1  0.74024167  0.63646700  0.06989760  1.0
  Zr  Zr71  1  0.74024167  0.96980033  0.06989760  1.0
  Zr  Zr72  1  0.19935900  0.22955867  0.03365800  1.0
  Zr  Zr73  1  0.19935900  0.56289200  0.03365800  1.0
  Zr  Zr74  1  0.19935900  0.89622533  0.03365800  1.0
  Zr  Zr75  1  0.53269233  0.22955867  0.03365800  1.0
  Zr  Zr76  1  0.53269233  0.56289200  0.03365800  1.0
  Zr  Zr77  1  0.53269233  0.89622533  0.03365800  1.0
  Zr  Zr78  1  0.86602567  0.22955867  0.03365800  1.0
  Zr  Zr79  1  0.86602567  0.56289200  0.03365800  1.0
  Zr  Zr80  1  0.86602567  0.89622533  0.03365800  1.0
  Ni  Ni81  1  0.00000000  0.16666667  0.18951300  1.0
  Ni  Ni82  1  0.00000000  0.50000000  0.18951300  1.0
  Ni  Ni83  1  0.00000000  0.83333333  0.18951300  1.0
  Ni  Ni84  1  0.33333333  0.16666667  0.18951300  1.0
  Ni  Ni85  1  0.33333333  0.50000000  0.18951300  1.0
  Ni  Ni86  1  0.33333333  0.83333333  0.18951300  1.0
  Ni  Ni87  1  0.66666667  0.16666667  0.18951300  1.0
  Ni  Ni88  1  0.66666667  0.50000000  0.18951300  1.0
  Ni  Ni89  1  0.66666667  0.83333333  0.18951300  1.0
  Ni  Ni90  1  0.16666667  0.25000000  0.08951300  1.0
  Ni  Ni91  1  0.16666667  0.58333333  0.08951300  1.0
  Ni  Ni92  1  0.16666667  0.91666667  0.08951300  1.0
  Ni  Ni93  1  0.50000000  0.25000000  0.08951300  1.0
  Ni  Ni94  1  0.50000000  0.58333333  0.08951300  1.0
  Ni  Ni95  1  0.50000000  0.91666667  0.08951300  1.0
  Ni  Ni96  1  0.83333333  0.25000000  0.08951300  1.0
  Ni  Ni97  1  0.83333333  0.58333333  0.08951300  1.0
  Ni  Ni98  1  0.83333333  0.91666667  0.08951300  1.0
  Ni  Ni99  1  0.16666667  0.08333333  0.08951300  1.0
  Ni  Ni100  1  0.16666667  0.41666667  0.08951300  1.0
  Ni  Ni101  1  0.16666667  0.75000000  0.08951300  1.0
  Ni  Ni102  1  0.50000000  0.08333333  0.08951300  1.0
  Ni  Ni103  1  0.50000000  0.41666667  0.08951300  1.0
  Ni  Ni104  1  0.50000000  0.75000000  0.08951300  1.0
  Ni  Ni105  1  0.83333333  0.08333333  0.08951300  1.0
  Ni  Ni106  1  0.83333333  0.41666667  0.08951300  1.0
  Ni  Ni107  1  0.83333333  0.75000000  0.08951300  1.0
  Ni  Ni108  1  0.11421367  0.10818633  0.01048700  1.0
  Ni  Ni109  1  0.11421367  0.44151967  0.01048700  1.0
  Ni  Ni110  1  0.11421367  0.77485300  0.01048700  1.0
  Ni  Ni111  1  0.44754700  0.10818633  0.01048700  1.0
  Ni  Ni112  1  0.44754700  0.44151967  0.01048700  1.0
  Ni  Ni113  1  0.44754700  0.77485300  0.01048700  1.0
  Ni  Ni114  1  0.78088033  0.10818633  0.01048700  1.0
  Ni  Ni115  1  0.78088033  0.44151967  0.01048700  1.0
  Ni  Ni116  1  0.78088033  0.77485300  0.01048700  1.0
  Ni  Ni117  1  0.03495667  0.14314300  0.12098480  1.0
  Ni  Ni118  1  0.03495667  0.47647633  0.12098480  1.0
  Ni  Ni119  1  0.03495667  0.80980967  0.12098480  1.0
  Ni  Ni120  1  0.36829000  0.14314300  0.12098480  1.0
  Ni  Ni121  1  0.36829000  0.47647633  0.12098480  1.0
  Ni  Ni122  1  0.36829000  0.80980967  0.12098480  1.0
  Ni  Ni123  1  0.70162333  0.14314300  0.12098480  1.0
  Ni  Ni124  1  0.70162333  0.47647633  0.12098480  1.0
  Ni  Ni125  1  0.70162333  0.80980967  0.12098480  1.0
  Ni  Ni126  1  0.29837667  0.32730600  0.05804120  1.0
  Ni  Ni127  1  0.29837667  0.66063933  0.05804120  1.0
  Ni  Ni128  1  0.29837667  0.99397267  0.05804120  1.0
  Ni  Ni129  1  0.63171000  0.32730600  0.05804120  1.0
  Ni  Ni130  1  0.63171000  0.66063933  0.05804120  1.0
  Ni  Ni131  1  0.63171000  0.99397267  0.05804120  1.0
  Ni  Ni132  1  0.96504333  0.32730600  0.05804120  1.0
  Ni  Ni133  1  0.96504333  0.66063933  0.05804120  1.0
  Ni  Ni134  1  0.96504333  0.99397267  0.05804120  1.0
  Ni  Ni135  1  0.21911967  0.02892933  0.16853900  1.0
  Ni  Ni136  1  0.21911967  0.36226267  0.16853900  1.0
  Ni  Ni137  1  0.21911967  0.69559600  0.16853900  1.0
  Ni  Ni138  1  0.55245300  0.02892933  0.16853900  1.0
  Ni  Ni139  1  0.55245300  0.36226267  0.16853900  1.0
  Ni  Ni140  1  0.55245300  0.69559600  0.16853900  1.0
  Ni  Ni141  1  0.88578633  0.02892933  0.16853900  1.0
  Ni  Ni142  1  0.88578633  0.36226267  0.16853900  1.0
  Ni  Ni143  1  0.88578633  0.69559600  0.16853900  1.0
  Ni  Ni144  1  0.21911967  0.22514700  0.16853900  1.0
  Ni  Ni145  1  0.21911967  0.55848033  0.16853900  1.0
  Ni  Ni146  1  0.21911967  0.89181367  0.16853900  1.0
  Ni  Ni147  1  0.55245300  0.22514700  0.16853900  1.0
  Ni  Ni148  1  0.55245300  0.55848033  0.16853900  1.0
  Ni  Ni149  1  0.55245300  0.89181367  0.16853900  1.0
  Ni  Ni150  1  0.88578633  0.22514700  0.16853900  1.0
  Ni  Ni151  1  0.88578633  0.55848033  0.16853900  1.0
  Ni  Ni152  1  0.88578633  0.89181367  0.16853900  1.0
  Ni  Ni153  1  0.29837667  0.19019033  0.05804120  1.0
  Ni  Ni154  1  0.29837667  0.52352367  0.05804120  1.0
  Ni  Ni155  1  0.29837667  0.85685700  0.05804120  1.0
  Ni  Ni156  1  0.63171000  0.19019033  0.05804120  1.0
  Ni  Ni157  1  0.63171000  0.52352367  0.05804120  1.0
  Ni  Ni158  1  0.63171000  0.85685700  0.05804120  1.0
  Ni  Ni159  1  0.96504333  0.19019033  0.05804120  1.0
  Ni  Ni160  1  0.96504333  0.52352367  0.05804120  1.0
  Ni  Ni161  1  0.96504333  0.85685700  0.05804120  1.0
  Ni  Ni162  1  0.03495667  0.00602733  0.12098480  1.0
  Ni  Ni163  1  0.03495667  0.33936067  0.12098480  1.0
  Ni  Ni164  1  0.03495667  0.67269400  0.12098480  1.0
  Ni  Ni165  1  0.36829000  0.00602733  0.12098480  1.0
  Ni  Ni166  1  0.36829000  0.33936067  0.12098480  1.0
  Ni  Ni167  1  0.36829000  0.67269400  0.12098480  1.0
  Ni  Ni168  1  0.70162333  0.00602733  0.12098480  1.0
  Ni  Ni169  1  0.70162333  0.33936067  0.12098480  1.0
  Ni  Ni170  1  0.70162333  0.67269400  0.12098480  1.0
  Ni  Ni171  1  0.11421367  0.30440400  0.01048700  1.0
  Ni  Ni172  1  0.11421367  0.63773733  0.01048700  1.0
  Ni  Ni173  1  0.11421367  0.97107067  0.01048700  1.0
  Ni  Ni174  1  0.44754700  0.30440400  0.01048700  1.0
  Ni  Ni175  1  0.44754700  0.63773733  0.01048700  1.0
  Ni  Ni176  1  0.44754700  0.97107067  0.01048700  1.0
  Ni  Ni177  1  0.78088033  0.30440400  0.01048700  1.0
  Ni  Ni178  1  0.78088033  0.63773733  0.01048700  1.0
  Ni  Ni179  1  0.78088033  0.97107067  0.01048700  1.0
  Zr  Zr180  1  0.00000000  0.00000000  0.38951300  1.0
  Zr  Zr181  1  0.00000000  0.33333333  0.38951300  1.0
  Zr  Zr182  1  0.00000000  0.66666667  0.38951300  1.0
  Zr  Zr183  1  0.33333333  0.00000000  0.38951300  1.0
  Zr  Zr184  1  0.33333333  0.33333333  0.38951300  1.0
  Zr  Zr185  1  0.33333333  0.66666667  0.38951300  1.0
  Zr  Zr186  1  0.66666667  0.00000000  0.38951300  1.0
  Zr  Zr187  1  0.66666667  0.33333333  0.38951300  1.0
  Zr  Zr188  1  0.66666667  0.66666667  0.38951300  1.0
  Zr  Zr189  1  0.22091267  0.08251967  0.22303700  1.0
  Zr  Zr190  1  0.22091267  0.41585300  0.22303700  1.0
  Zr  Zr191  1  0.22091267  0.74918633  0.22303700  1.0
  Zr  Zr192  1  0.55424600  0.08251967  0.22303700  1.0
  Zr  Zr193  1  0.55424600  0.41585300  0.22303700  1.0
  Zr  Zr194  1  0.55424600  0.74918633  0.22303700  1.0
  Zr  Zr195  1  0.88757933  0.08251967  0.22303700  1.0
  Zr  Zr196  1  0.88757933  0.41585300  0.22303700  1.0
  Zr  Zr197  1  0.88757933  0.74918633  0.22303700  1.0
  Zr  Zr198  1  0.05587333  0.13839300  0.25696540  1.0
  Zr  Zr199  1  0.05587333  0.47172633  0.25696540  1.0
  Zr  Zr200  1  0.05587333  0.80505967  0.25696540  1.0
  Zr  Zr201  1  0.38920667  0.13839300  0.25696540  1.0
  Zr  Zr202  1  0.38920667  0.47172633  0.25696540  1.0
  Zr  Zr203  1  0.38920667  0.80505967  0.25696540  1.0
  Zr  Zr204  1  0.72254000  0.13839300  0.25696540  1.0
  Zr  Zr205  1  0.72254000  0.47172633  0.25696540  1.0
  Zr  Zr206  1  0.72254000  0.80505967  0.25696540  1.0
  Zr  Zr207  1  0.27746000  0.19494033  0.32206060  1.0
  Zr  Zr208  1  0.27746000  0.52827367  0.32206060  1.0
  Zr  Zr209  1  0.27746000  0.86160700  0.32206060  1.0
  Zr  Zr210  1  0.61079333  0.19494033  0.32206060  1.0
  Zr  Zr211  1  0.61079333  0.52827367  0.32206060  1.0
  Zr  Zr212  1  0.61079333  0.86160700  0.32206060  1.0
  Zr  Zr213  1  0.94412667  0.19494033  0.32206060  1.0
  Zr  Zr214  1  0.94412667  0.52827367  0.32206060  1.0
  Zr  Zr215  1  0.94412667  0.86160700  0.32206060  1.0
  Zr  Zr216  1  0.11242067  0.25081367  0.35598900  1.0
  Zr  Zr217  1  0.11242067  0.58414700  0.35598900  1.0
  Zr  Zr218  1  0.11242067  0.91748033  0.35598900  1.0
  Zr  Zr219  1  0.44575400  0.25081367  0.35598900  1.0
  Zr  Zr220  1  0.44575400  0.58414700  0.35598900  1.0
  Zr  Zr221  1  0.44575400  0.91748033  0.35598900  1.0
  Zr  Zr222  1  0.77908733  0.25081367  0.35598900  1.0
  Zr  Zr223  1  0.77908733  0.58414700  0.35598900  1.0
  Zr  Zr224  1  0.77908733  0.91748033  0.35598900  1.0
  Zr  Zr225  1  0.13397433  0.10377467  0.34536800  1.0
  Zr  Zr226  1  0.13397433  0.43710800  0.34536800  1.0
  Zr  Zr227  1  0.13397433  0.77044133  0.34536800  1.0
  Zr  Zr228  1  0.46730767  0.10377467  0.34536800  1.0
  Zr  Zr229  1  0.46730767  0.43710800  0.34536800  1.0
  Zr  Zr230  1  0.46730767  0.77044133  0.34536800  1.0
  Zr  Zr231  1  0.80064100  0.10377467  0.34536800  1.0
  Zr  Zr232  1  0.80064100  0.43710800  0.34536800  1.0
  Zr  Zr233  1  0.80064100  0.77044133  0.34536800  1.0
  Zr  Zr234  1  0.25975833  0.03019967  0.30912840  1.0
  Zr  Zr235  1  0.25975833  0.36353300  0.30912840  1.0
  Zr  Zr236  1  0.25975833  0.69686633  0.30912840  1.0
  Zr  Zr237  1  0.59309167  0.03019967  0.30912840  1.0
  Zr  Zr238  1  0.59309167  0.36353300  0.30912840  1.0
  Zr  Zr239  1  0.59309167  0.69686633  0.30912840  1.0
  Zr  Zr240  1  0.92642500  0.03019967  0.30912840  1.0
  Zr  Zr241  1  0.92642500  0.36353300  0.30912840  1.0
  Zr  Zr242  1  0.92642500  0.69686633  0.30912840  1.0
  Zr  Zr243  1  0.07357500  0.30313367  0.26989760  1.0
  Zr  Zr244  1  0.07357500  0.63646700  0.26989760  1.0
  Zr  Zr245  1  0.07357500  0.96980033  0.26989760  1.0
  Zr  Zr246  1  0.40690833  0.30313367  0.26989760  1.0
  Zr  Zr247  1  0.40690833  0.63646700  0.26989760  1.0
  Zr  Zr248  1  0.40690833  0.96980033  0.26989760  1.0
  Zr  Zr249  1  0.74024167  0.30313367  0.26989760  1.0
  Zr  Zr250  1  0.74024167  0.63646700  0.26989760  1.0
  Zr  Zr251  1  0.74024167  0.96980033  0.26989760  1.0
  Zr  Zr252  1  0.19935900  0.22955867  0.23365800  1.0
  Zr  Zr253  1  0.19935900  0.56289200  0.23365800  1.0
  Zr  Zr254  1  0.19935900  0.89622533  0.23365800  1.0
  Zr  Zr255  1  0.53269233  0.22955867  0.23365800  1.0
  Zr  Zr256  1  0.53269233  0.56289200  0.23365800  1.0
  Zr  Zr257  1  0.53269233  0.89622533  0.23365800  1.0
  Zr  Zr258  1  0.86602567  0.22955867  0.23365800  1.0
  Zr  Zr259  1  0.86602567  0.56289200  0.23365800  1.0
  Zr  Zr260  1  0.86602567  0.89622533  0.23365800  1.0
  Ni  Ni261  1  0.00000000  0.16666667  0.38951300  1.0
  Ni  Ni262  1  0.00000000  0.50000000  0.38951300  1.0
  Ni  Ni263  1  0.00000000  0.83333333  0.38951300  1.0
  Ni  Ni264  1  0.33333333  0.16666667  0.38951300  1.0
  Ni  Ni265  1  0.33333333  0.50000000  0.38951300  1.0
  Ni  Ni266  1  0.33333333  0.83333333  0.38951300  1.0
  Ni  Ni267  1  0.66666667  0.16666667  0.38951300  1.0
  Ni  Ni268  1  0.66666667  0.50000000  0.38951300  1.0
  Ni  Ni269  1  0.66666667  0.83333333  0.38951300  1.0
  Ni  Ni270  1  0.16666667  0.25000000  0.28951300  1.0
  Ni  Ni271  1  0.16666667  0.58333333  0.28951300  1.0
  Ni  Ni272  1  0.16666667  0.91666667  0.28951300  1.0
  Ni  Ni273  1  0.50000000  0.25000000  0.28951300  1.0
  Ni  Ni274  1  0.50000000  0.58333333  0.28951300  1.0
  Ni  Ni275  1  0.50000000  0.91666667  0.28951300  1.0
  Ni  Ni276  1  0.83333333  0.25000000  0.28951300  1.0
  Ni  Ni277  1  0.83333333  0.58333333  0.28951300  1.0
  Ni  Ni278  1  0.83333333  0.91666667  0.28951300  1.0
  Ni  Ni279  1  0.16666667  0.08333333  0.28951300  1.0
  Ni  Ni280  1  0.16666667  0.41666667  0.28951300  1.0
  Ni  Ni281  1  0.16666667  0.75000000  0.28951300  1.0
  Ni  Ni282  1  0.50000000  0.08333333  0.28951300  1.0
  Ni  Ni283  1  0.50000000  0.41666667  0.28951300  1.0
  Ni  Ni284  1  0.50000000  0.75000000  0.28951300  1.0
  Ni  Ni285  1  0.83333333  0.08333333  0.28951300  1.0
  Ni  Ni286  1  0.83333333  0.41666667  0.28951300  1.0
  Ni  Ni287  1  0.83333333  0.75000000  0.28951300  1.0
  Ni  Ni288  1  0.11421367  0.10818633  0.21048700  1.0
  Ni  Ni289  1  0.11421367  0.44151967  0.21048700  1.0
  Ni  Ni290  1  0.11421367  0.77485300  0.21048700  1.0
  Ni  Ni291  1  0.44754700  0.10818633  0.21048700  1.0
  Ni  Ni292  1  0.44754700  0.44151967  0.21048700  1.0
  Ni  Ni293  1  0.44754700  0.77485300  0.21048700  1.0
  Ni  Ni294  1  0.78088033  0.10818633  0.21048700  1.0
  Ni  Ni295  1  0.78088033  0.44151967  0.21048700  1.0
  Ni  Ni296  1  0.78088033  0.77485300  0.21048700  1.0
  Ni  Ni297  1  0.03495667  0.14314300  0.32098480  1.0
  Ni  Ni298  1  0.03495667  0.47647633  0.32098480  1.0
  Ni  Ni299  1  0.03495667  0.80980967  0.32098480  1.0
  Ni  Ni300  1  0.36829000  0.14314300  0.32098480  1.0
  Ni  Ni301  1  0.36829000  0.47647633  0.32098480  1.0
  Ni  Ni302  1  0.36829000  0.80980967  0.32098480  1.0
  Ni  Ni303  1  0.70162333  0.14314300  0.32098480  1.0
  Ni  Ni304  1  0.70162333  0.47647633  0.32098480  1.0
  Ni  Ni305  1  0.70162333  0.80980967  0.32098480  1.0
  Ni  Ni306  1  0.29837667  0.32730600  0.25804120  1.0
  Ni  Ni307  1  0.29837667  0.66063933  0.25804120  1.0
  Ni  Ni308  1  0.29837667  0.99397267  0.25804120  1.0
  Ni  Ni309  1  0.63171000  0.32730600  0.25804120  1.0
  Ni  Ni310  1  0.63171000  0.66063933  0.25804120  1.0
  Ni  Ni311  1  0.63171000  0.99397267  0.25804120  1.0
  Ni  Ni312  1  0.96504333  0.32730600  0.25804120  1.0
  Ni  Ni313  1  0.96504333  0.66063933  0.25804120  1.0
  Ni  Ni314  1  0.96504333  0.99397267  0.25804120  1.0
  Ni  Ni315  1  0.21911967  0.02892933  0.36853900  1.0
  Ni  Ni316  1  0.21911967  0.36226267  0.36853900  1.0
  Ni  Ni317  1  0.21911967  0.69559600  0.36853900  1.0
  Ni  Ni318  1  0.55245300  0.02892933  0.36853900  1.0
  Ni  Ni319  1  0.55245300  0.36226267  0.36853900  1.0
  Ni  Ni320  1  0.55245300  0.69559600  0.36853900  1.0
  Ni  Ni321  1  0.88578633  0.02892933  0.36853900  1.0
  Ni  Ni322  1  0.88578633  0.36226267  0.36853900  1.0
  Ni  Ni323  1  0.88578633  0.69559600  0.36853900  1.0
  Ni  Ni324  1  0.21911967  0.22514700  0.36853900  1.0
  Ni  Ni325  1  0.21911967  0.55848033  0.36853900  1.0
  Ni  Ni326  1  0.21911967  0.89181367  0.36853900  1.0
  Ni  Ni327  1  0.55245300  0.22514700  0.36853900  1.0
  Ni  Ni328  1  0.55245300  0.55848033  0.36853900  1.0
  Ni  Ni329  1  0.55245300  0.89181367  0.36853900  1.0
  Ni  Ni330  1  0.88578633  0.22514700  0.36853900  1.0
  Ni  Ni331  1  0.88578633  0.55848033  0.36853900  1.0
  Ni  Ni332  1  0.88578633  0.89181367  0.36853900  1.0
  Ni  Ni333  1  0.29837667  0.19019033  0.25804120  1.0
  Ni  Ni334  1  0.29837667  0.52352367  0.25804120  1.0
  Ni  Ni335  1  0.29837667  0.85685700  0.25804120  1.0
  Ni  Ni336  1  0.63171000  0.19019033  0.25804120  1.0
  Ni  Ni337  1  0.63171000  0.52352367  0.25804120  1.0
  Ni  Ni338  1  0.63171000  0.85685700  0.25804120  1.0
  Ni  Ni339  1  0.96504333  0.19019033  0.25804120  1.0
  Ni  Ni340  1  0.96504333  0.52352367  0.25804120  1.0
  Ni  Ni341  1  0.96504333  0.85685700  0.25804120  1.0
  Ni  Ni342  1  0.03495667  0.00602733  0.32098480  1.0
  Ni  Ni343  1  0.03495667  0.33936067  0.32098480  1.0
  Ni  Ni344  1  0.03495667  0.67269400  0.32098480  1.0
  Ni  Ni345  1  0.36829000  0.00602733  0.32098480  1.0
  Ni  Ni346  1  0.36829000  0.33936067  0.32098480  1.0
  Ni  Ni347  1  0.36829000  0.67269400  0.32098480  1.0
  Ni  Ni348  1  0.70162333  0.00602733  0.32098480  1.0
  Ni  Ni349  1  0.70162333  0.33936067  0.32098480  1.0
  Ni  Ni350  1  0.70162333  0.67269400  0.32098480  1.0
  Ni  Ni351  1  0.11421367  0.30440400  0.21048700  1.0
  Ni  Ni352  1  0.11421367  0.63773733  0.21048700  1.0
  Ni  Ni353  1  0.11421367  0.97107067  0.21048700  1.0
  Ni  Ni354  1  0.44754700  0.30440400  0.21048700  1.0
  Ni  Ni355  1  0.44754700  0.63773733  0.21048700  1.0
  Ni  Ni356  1  0.44754700  0.97107067  0.21048700  1.0
  Ni  Ni357  1  0.78088033  0.30440400  0.21048700  1.0
  Ni  Ni358  1  0.78088033  0.63773733  0.21048700  1.0
  Ni  Ni359  1  0.78088033  0.97107067  0.21048700  1.0
