# generated using pymatgen
data_ZrNi5
_symmetry_space_group_name_H-M   'P 1'
_cell_length_a   20.08137602
_cell_length_b   24.59456229
_cell_length_c   29.93554791
_cell_angle_alpha   90.00000000
_cell_angle_beta   90.00000000
_cell_angle_gamma   114.09484255
_symmetry_Int_Tables_number   1
_chemical_formula_structural   ZrNi5
_chemical_formula_sum   'Zr72 Ni360'
_cell_volume   13496.74847912
_cell_formula_units_Z   72
loop_
 _symmetry_equiv_pos_site_id
 _symmetry_equiv_pos_as_xyz
  1  'x, y, z'
loop_
 _atom_site_type_symbol
 _atom_site_label
 _atom_site_symmetry_multiplicity
 _atom_site_fract_x
 _atom_site_fract_y
 _atom_site_fract_z
 _atom_site_occupancy
  Ni  Ni0  1  0.28760277  0.09586759  0.01880138  1.0
  Ni  Ni1  1  0.28760277  0.42920092  0.01880138  1.0
  Ni  Ni2  1  0.28760277  0.76253426  0.01880138  1.0
  Ni  Ni3  1  0.62093610  0.09586759  0.01880138  1.0
  Ni  Ni4  1  0.62093610  0.42920092  0.01880138  1.0
  Ni  Ni5  1  0.62093610  0.76253426  0.01880138  1.0
  Ni  Ni6  1  0.95426943  0.09586759  0.01880138  1.0
  Ni  Ni7  1  0.95426943  0.42920092  0.01880138  1.0
  Ni  Ni8  1  0.95426943  0.76253426  0.01880138  1.0
  Ni  Ni9  1  0.05426943  0.29586759  0.06880138  1.0
  Ni  Ni10  1  0.05426943  0.62920092  0.06880138  1.0
  Ni  Ni11  1  0.05426943  0.96253426  0.06880138  1.0
  Ni  Ni12  1  0.38760277  0.29586759  0.06880138  1.0
  Ni  Ni13  1  0.38760277  0.62920092  0.06880138  1.0
  Ni  Ni14  1  0.38760277  0.96253426  0.06880138  1.0
  Ni  Ni15  1  0.72093610  0.29586759  0.06880138  1.0
  Ni  Ni16  1  0.72093610  0.62920092  0.06880138  1.0
  Ni  Ni17  1  0.72093610  0.96253426  0.06880138  1.0
  Ni  Ni18  1  0.18732872  0.31267128  0.03099308  1.0
  Ni  Ni19  1  0.18732872  0.64600461  0.03099308  1.0
  Ni  Ni20  1  0.18732872  0.97933795  0.03099308  1.0
  Ni  Ni21  1  0.52066206  0.31267128  0.03099308  1.0
  Ni  Ni22  1  0.52066206  0.64600461  0.03099308  1.0
  Ni  Ni23  1  0.52066206  0.97933795  0.03099308  1.0
  Ni  Ni24  1  0.85399539  0.31267128  0.03099308  1.0
  Ni  Ni25  1  0.85399539  0.64600461  0.03099308  1.0
  Ni  Ni26  1  0.85399539  0.97933795  0.03099308  1.0
  Ni  Ni27  1  0.28732872  0.17933795  0.08099308  1.0
  Ni  Ni28  1  0.28732872  0.51267128  0.08099308  1.0
  Ni  Ni29  1  0.28732872  0.84600461  0.08099308  1.0
  Ni  Ni30  1  0.62066206  0.17933795  0.08099308  1.0
  Ni  Ni31  1  0.62066206  0.51267128  0.08099308  1.0
  Ni  Ni32  1  0.62066206  0.84600461  0.08099308  1.0
  Ni  Ni33  1  0.95399539  0.17933795  0.08099308  1.0
  Ni  Ni34  1  0.95399539  0.51267128  0.08099308  1.0
  Ni  Ni35  1  0.95399539  0.84600461  0.08099308  1.0
  Ni  Ni36  1  0.28815086  0.01294532  0.08140415  1.0
  Ni  Ni37  1  0.28815086  0.34627866  0.08140415  1.0
  Ni  Ni38  1  0.28815086  0.67961199  0.08140415  1.0
  Ni  Ni39  1  0.62148419  0.01294532  0.08140415  1.0
  Ni  Ni40  1  0.62148419  0.34627866  0.08140415  1.0
  Ni  Ni41  1  0.62148419  0.67961199  0.08140415  1.0
  Ni  Ni42  1  0.95481752  0.01294532  0.08140415  1.0
  Ni  Ni43  1  0.95481752  0.34627866  0.08140415  1.0
  Ni  Ni44  1  0.95481752  0.67961199  0.08140415  1.0
  Ni  Ni45  1  0.18815086  0.14627866  0.03140415  1.0
  Ni  Ni46  1  0.18815086  0.47961199  0.03140415  1.0
  Ni  Ni47  1  0.18815086  0.81294532  0.03140415  1.0
  Ni  Ni48  1  0.52148419  0.14627866  0.03140415  1.0
  Ni  Ni49  1  0.52148419  0.47961199  0.03140415  1.0
  Ni  Ni50  1  0.52148419  0.81294532  0.03140415  1.0
  Ni  Ni51  1  0.85481752  0.14627866  0.03140415  1.0
  Ni  Ni52  1  0.85481752  0.47961199  0.03140415  1.0
  Ni  Ni53  1  0.85481752  0.81294532  0.03140415  1.0
  Ni  Ni54  1  0.07052503  0.07906390  0.05660968  1.0
  Ni  Ni55  1  0.07052503  0.41239723  0.05660968  1.0
  Ni  Ni56  1  0.07052503  0.74573057  0.05660968  1.0
  Ni  Ni57  1  0.40385837  0.07906390  0.05660968  1.0
  Ni  Ni58  1  0.40385837  0.41239723  0.05660968  1.0
  Ni  Ni59  1  0.40385837  0.74573057  0.05660968  1.0
  Ni  Ni60  1  0.73719170  0.07906390  0.05660968  1.0
  Ni  Ni61  1  0.73719170  0.41239723  0.05660968  1.0
  Ni  Ni62  1  0.73719170  0.74573057  0.05660968  1.0
  Ni  Ni63  1  0.30385837  0.21239723  0.00660968  1.0
  Ni  Ni64  1  0.30385837  0.54573057  0.00660968  1.0
  Ni  Ni65  1  0.30385837  0.87906390  0.00660968  1.0
  Ni  Ni66  1  0.63719170  0.21239723  0.00660968  1.0
  Ni  Ni67  1  0.63719170  0.54573057  0.00660968  1.0
  Ni  Ni68  1  0.63719170  0.87906390  0.00660968  1.0
  Ni  Ni69  1  0.97052503  0.21239723  0.00660968  1.0
  Ni  Ni70  1  0.97052503  0.54573057  0.00660968  1.0
  Ni  Ni71  1  0.97052503  0.87906390  0.00660968  1.0
  Ni  Ni72  1  0.13773979  0.04545652  0.00619862  1.0
  Ni  Ni73  1  0.13773979  0.37878986  0.00619862  1.0
  Ni  Ni74  1  0.13773979  0.71212319  0.00619862  1.0
  Ni  Ni75  1  0.47107312  0.04545652  0.00619862  1.0
  Ni  Ni76  1  0.47107312  0.37878986  0.00619862  1.0
  Ni  Ni77  1  0.47107312  0.71212319  0.00619862  1.0
  Ni  Ni78  1  0.80440646  0.04545652  0.00619862  1.0
  Ni  Ni79  1  0.80440646  0.37878986  0.00619862  1.0
  Ni  Ni80  1  0.80440646  0.71212319  0.00619862  1.0
  Ni  Ni81  1  0.23773979  0.24545652  0.05619862  1.0
  Ni  Ni82  1  0.23773979  0.57878986  0.05619862  1.0
  Ni  Ni83  1  0.23773979  0.91212319  0.05619862  1.0
  Ni  Ni84  1  0.57107312  0.24545652  0.05619862  1.0
  Ni  Ni85  1  0.57107312  0.57878986  0.05619862  1.0
  Ni  Ni86  1  0.57107312  0.91212319  0.05619862  1.0
  Ni  Ni87  1  0.90440646  0.24545652  0.05619862  1.0
  Ni  Ni88  1  0.90440646  0.57878986  0.05619862  1.0
  Ni  Ni89  1  0.90440646  0.91212319  0.05619862  1.0
  Ni  Ni90  1  0.15426943  0.16253426  0.11880138  1.0
  Ni  Ni91  1  0.15426943  0.49586759  0.11880138  1.0
  Ni  Ni92  1  0.15426943  0.82920092  0.11880138  1.0
  Ni  Ni93  1  0.48760277  0.16253426  0.11880138  1.0
  Ni  Ni94  1  0.48760277  0.49586759  0.11880138  1.0
  Ni  Ni95  1  0.48760277  0.82920092  0.11880138  1.0
  Ni  Ni96  1  0.82093610  0.16253426  0.11880138  1.0
  Ni  Ni97  1  0.82093610  0.49586759  0.11880138  1.0
  Ni  Ni98  1  0.82093610  0.82920092  0.11880138  1.0
  Ni  Ni99  1  0.25426943  0.02920092  0.16880138  1.0
  Ni  Ni100  1  0.25426943  0.36253426  0.16880138  1.0
  Ni  Ni101  1  0.25426943  0.69586759  0.16880138  1.0
  Ni  Ni102  1  0.58760277  0.02920092  0.16880138  1.0
  Ni  Ni103  1  0.58760277  0.36253426  0.16880138  1.0
  Ni  Ni104  1  0.58760277  0.69586759  0.16880138  1.0
  Ni  Ni105  1  0.92093610  0.02920092  0.16880138  1.0
  Ni  Ni106  1  0.92093610  0.36253426  0.16880138  1.0
  Ni  Ni107  1  0.92093610  0.69586759  0.16880138  1.0
  Ni  Ni108  1  0.05399539  0.04600461  0.13099308  1.0
  Ni  Ni109  1  0.05399539  0.37933795  0.13099308  1.0
  Ni  Ni110  1  0.05399539  0.71267128  0.13099308  1.0
  Ni  Ni111  1  0.38732872  0.04600461  0.13099308  1.0
  Ni  Ni112  1  0.38732872  0.37933795  0.13099308  1.0
  Ni  Ni113  1  0.38732872  0.71267128  0.13099308  1.0
  Ni  Ni114  1  0.72066206  0.04600461  0.13099308  1.0
  Ni  Ni115  1  0.72066206  0.37933795  0.13099308  1.0
  Ni  Ni116  1  0.72066206  0.71267128  0.13099308  1.0
  Ni  Ni117  1  0.15399539  0.24600461  0.18099308  1.0
  Ni  Ni118  1  0.15399539  0.57933795  0.18099308  1.0
  Ni  Ni119  1  0.15399539  0.91267128  0.18099308  1.0
  Ni  Ni120  1  0.48732872  0.24600461  0.18099308  1.0
  Ni  Ni121  1  0.48732872  0.57933795  0.18099308  1.0
  Ni  Ni122  1  0.48732872  0.91267128  0.18099308  1.0
  Ni  Ni123  1  0.82066206  0.24600461  0.18099308  1.0
  Ni  Ni124  1  0.82066206  0.57933795  0.18099308  1.0
  Ni  Ni125  1  0.82066206  0.91267128  0.18099308  1.0
  Ni  Ni126  1  0.15481752  0.07961199  0.18140415  1.0
  Ni  Ni127  1  0.15481752  0.41294532  0.18140415  1.0
  Ni  Ni128  1  0.15481752  0.74627866  0.18140415  1.0
  Ni  Ni129  1  0.48815086  0.07961199  0.18140415  1.0
  Ni  Ni130  1  0.48815086  0.41294532  0.18140415  1.0
  Ni  Ni131  1  0.48815086  0.74627866  0.18140415  1.0
  Ni  Ni132  1  0.82148419  0.07961199  0.18140415  1.0
  Ni  Ni133  1  0.82148419  0.41294532  0.18140415  1.0
  Ni  Ni134  1  0.82148419  0.74627866  0.18140415  1.0
  Ni  Ni135  1  0.05481752  0.21294532  0.13140415  1.0
  Ni  Ni136  1  0.05481752  0.54627866  0.13140415  1.0
  Ni  Ni137  1  0.05481752  0.87961199  0.13140415  1.0
  Ni  Ni138  1  0.38815086  0.21294532  0.13140415  1.0
  Ni  Ni139  1  0.38815086  0.54627866  0.13140415  1.0
  Ni  Ni140  1  0.38815086  0.87961199  0.13140415  1.0
  Ni  Ni141  1  0.72148419  0.21294532  0.13140415  1.0
  Ni  Ni142  1  0.72148419  0.54627866  0.13140415  1.0
  Ni  Ni143  1  0.72148419  0.87961199  0.13140415  1.0
  Ni  Ni144  1  0.27052503  0.14573057  0.15660968  1.0
  Ni  Ni145  1  0.27052503  0.47906390  0.15660968  1.0
  Ni  Ni146  1  0.27052503  0.81239723  0.15660968  1.0
  Ni  Ni147  1  0.60385837  0.14573057  0.15660968  1.0
  Ni  Ni148  1  0.60385837  0.47906390  0.15660968  1.0
  Ni  Ni149  1  0.60385837  0.81239723  0.15660968  1.0
  Ni  Ni150  1  0.93719170  0.14573057  0.15660968  1.0
  Ni  Ni151  1  0.93719170  0.47906390  0.15660968  1.0
  Ni  Ni152  1  0.93719170  0.81239723  0.15660968  1.0
  Ni  Ni153  1  0.17052503  0.27906390  0.10660968  1.0
  Ni  Ni154  1  0.17052503  0.61239723  0.10660968  1.0
  Ni  Ni155  1  0.17052503  0.94573057  0.10660968  1.0
  Ni  Ni156  1  0.50385837  0.27906390  0.10660968  1.0
  Ni  Ni157  1  0.50385837  0.61239723  0.10660968  1.0
  Ni  Ni158  1  0.50385837  0.94573057  0.10660968  1.0
  Ni  Ni159  1  0.83719170  0.27906390  0.10660968  1.0
  Ni  Ni160  1  0.83719170  0.61239723  0.10660968  1.0
  Ni  Ni161  1  0.83719170  0.94573057  0.10660968  1.0
  Ni  Ni162  1  0.00440646  0.11212319  0.10619862  1.0
  Ni  Ni163  1  0.00440646  0.44545652  0.10619862  1.0
  Ni  Ni164  1  0.00440646  0.77878986  0.10619862  1.0
  Ni  Ni165  1  0.33773979  0.11212319  0.10619862  1.0
  Ni  Ni166  1  0.33773979  0.44545652  0.10619862  1.0
  Ni  Ni167  1  0.33773979  0.77878986  0.10619862  1.0
  Ni  Ni168  1  0.67107312  0.11212319  0.10619862  1.0
  Ni  Ni169  1  0.67107312  0.44545652  0.10619862  1.0
  Ni  Ni170  1  0.67107312  0.77878986  0.10619862  1.0
  Ni  Ni171  1  0.10440646  0.31212319  0.15619862  1.0
  Ni  Ni172  1  0.10440646  0.64545652  0.15619862  1.0
  Ni  Ni173  1  0.10440646  0.97878986  0.15619862  1.0
  Ni  Ni174  1  0.43773979  0.31212319  0.15619862  1.0
  Ni  Ni175  1  0.43773979  0.64545652  0.15619862  1.0
  Ni  Ni176  1  0.43773979  0.97878986  0.15619862  1.0
  Ni  Ni177  1  0.77107312  0.31212319  0.15619862  1.0
  Ni  Ni178  1  0.77107312  0.64545652  0.15619862  1.0
  Ni  Ni179  1  0.77107312  0.97878986  0.15619862  1.0
  Ni  Ni180  1  0.02093610  0.22920092  0.21880138  1.0
  Ni  Ni181  1  0.02093610  0.56253426  0.21880138  1.0
  Ni  Ni182  1  0.02093610  0.89586759  0.21880138  1.0
  Ni  Ni183  1  0.35426943  0.22920092  0.21880138  1.0
  Ni  Ni184  1  0.35426943  0.56253426  0.21880138  1.0
  Ni  Ni185  1  0.35426943  0.89586759  0.21880138  1.0
  Ni  Ni186  1  0.68760277  0.22920092  0.21880138  1.0
  Ni  Ni187  1  0.68760277  0.56253426  0.21880138  1.0
  Ni  Ni188  1  0.68760277  0.89586759  0.21880138  1.0
  Ni  Ni189  1  0.12093610  0.09586759  0.26880138  1.0
  Ni  Ni190  1  0.12093610  0.42920092  0.26880138  1.0
  Ni  Ni191  1  0.12093610  0.76253426  0.26880138  1.0
  Ni  Ni192  1  0.45426943  0.09586759  0.26880138  1.0
  Ni  Ni193  1  0.45426943  0.42920092  0.26880138  1.0
  Ni  Ni194  1  0.45426943  0.76253426  0.26880138  1.0
  Ni  Ni195  1  0.78760277  0.09586759  0.26880138  1.0
  Ni  Ni196  1  0.78760277  0.42920092  0.26880138  1.0
  Ni  Ni197  1  0.78760277  0.76253426  0.26880138  1.0
  Ni  Ni198  1  0.25399539  0.11267128  0.23099308  1.0
  Ni  Ni199  1  0.25399539  0.44600461  0.23099308  1.0
  Ni  Ni200  1  0.25399539  0.77933795  0.23099308  1.0
  Ni  Ni201  1  0.58732872  0.11267128  0.23099308  1.0
  Ni  Ni202  1  0.58732872  0.44600461  0.23099308  1.0
  Ni  Ni203  1  0.58732872  0.77933795  0.23099308  1.0
  Ni  Ni204  1  0.92066206  0.11267128  0.23099308  1.0
  Ni  Ni205  1  0.92066206  0.44600461  0.23099308  1.0
  Ni  Ni206  1  0.92066206  0.77933795  0.23099308  1.0
  Ni  Ni207  1  0.02066206  0.31267128  0.28099308  1.0
  Ni  Ni208  1  0.02066206  0.64600461  0.28099308  1.0
  Ni  Ni209  1  0.02066206  0.97933795  0.28099308  1.0
  Ni  Ni210  1  0.35399539  0.31267128  0.28099308  1.0
  Ni  Ni211  1  0.35399539  0.64600461  0.28099308  1.0
  Ni  Ni212  1  0.35399539  0.97933795  0.28099308  1.0
  Ni  Ni213  1  0.68732872  0.31267128  0.28099308  1.0
  Ni  Ni214  1  0.68732872  0.64600461  0.28099308  1.0
  Ni  Ni215  1  0.68732872  0.97933795  0.28099308  1.0
  Ni  Ni216  1  0.02148419  0.14627866  0.28140415  1.0
  Ni  Ni217  1  0.02148419  0.47961199  0.28140415  1.0
  Ni  Ni218  1  0.02148419  0.81294532  0.28140415  1.0
  Ni  Ni219  1  0.35481752  0.14627866  0.28140415  1.0
  Ni  Ni220  1  0.35481752  0.47961199  0.28140415  1.0
  Ni  Ni221  1  0.35481752  0.81294532  0.28140415  1.0
  Ni  Ni222  1  0.68815086  0.14627866  0.28140415  1.0
  Ni  Ni223  1  0.68815086  0.47961199  0.28140415  1.0
  Ni  Ni224  1  0.68815086  0.81294532  0.28140415  1.0
  Ni  Ni225  1  0.25481752  0.27961199  0.23140415  1.0
  Ni  Ni226  1  0.25481752  0.61294532  0.23140415  1.0
  Ni  Ni227  1  0.25481752  0.94627866  0.23140415  1.0
  Ni  Ni228  1  0.58815086  0.27961199  0.23140415  1.0
  Ni  Ni229  1  0.58815086  0.61294532  0.23140415  1.0
  Ni  Ni230  1  0.58815086  0.94627866  0.23140415  1.0
  Ni  Ni231  1  0.92148419  0.27961199  0.23140415  1.0
  Ni  Ni232  1  0.92148419  0.61294532  0.23140415  1.0
  Ni  Ni233  1  0.92148419  0.94627866  0.23140415  1.0
  Ni  Ni234  1  0.13719170  0.21239723  0.25660968  1.0
  Ni  Ni235  1  0.13719170  0.54573057  0.25660968  1.0
  Ni  Ni236  1  0.13719170  0.87906390  0.25660968  1.0
  Ni  Ni237  1  0.47052503  0.21239723  0.25660968  1.0
  Ni  Ni238  1  0.47052503  0.54573057  0.25660968  1.0
  Ni  Ni239  1  0.47052503  0.87906390  0.25660968  1.0
  Ni  Ni240  1  0.80385837  0.21239723  0.25660968  1.0
  Ni  Ni241  1  0.80385837  0.54573057  0.25660968  1.0
  Ni  Ni242  1  0.80385837  0.87906390  0.25660968  1.0
  Ni  Ni243  1  0.03719170  0.01239723  0.20660968  1.0
  Ni  Ni244  1  0.03719170  0.34573057  0.20660968  1.0
  Ni  Ni245  1  0.03719170  0.67906390  0.20660968  1.0
  Ni  Ni246  1  0.37052503  0.01239723  0.20660968  1.0
  Ni  Ni247  1  0.37052503  0.34573057  0.20660968  1.0
  Ni  Ni248  1  0.37052503  0.67906390  0.20660968  1.0
  Ni  Ni249  1  0.70385837  0.01239723  0.20660968  1.0
  Ni  Ni250  1  0.70385837  0.34573057  0.20660968  1.0
  Ni  Ni251  1  0.70385837  0.67906390  0.20660968  1.0
  Ni  Ni252  1  0.20440646  0.17878986  0.20619862  1.0
  Ni  Ni253  1  0.20440646  0.51212319  0.20619862  1.0
  Ni  Ni254  1  0.20440646  0.84545652  0.20619862  1.0
  Ni  Ni255  1  0.53773979  0.17878986  0.20619862  1.0
  Ni  Ni256  1  0.53773979  0.51212319  0.20619862  1.0
  Ni  Ni257  1  0.53773979  0.84545652  0.20619862  1.0
  Ni  Ni258  1  0.87107312  0.17878986  0.20619862  1.0
  Ni  Ni259  1  0.87107312  0.51212319  0.20619862  1.0
  Ni  Ni260  1  0.87107312  0.84545652  0.20619862  1.0
  Ni  Ni261  1  0.30440646  0.04545652  0.25619862  1.0
  Ni  Ni262  1  0.30440646  0.37878986  0.25619862  1.0
  Ni  Ni263  1  0.30440646  0.71212319  0.25619862  1.0
  Ni  Ni264  1  0.63773979  0.04545652  0.25619862  1.0
  Ni  Ni265  1  0.63773979  0.37878986  0.25619862  1.0
  Ni  Ni266  1  0.63773979  0.71212319  0.25619862  1.0
  Ni  Ni267  1  0.97107312  0.04545652  0.25619862  1.0
  Ni  Ni268  1  0.97107312  0.37878986  0.25619862  1.0
  Ni  Ni269  1  0.97107312  0.71212319  0.25619862  1.0
  Ni  Ni270  1  0.22093610  0.29586759  0.31880138  1.0
  Ni  Ni271  1  0.22093610  0.62920092  0.31880138  1.0
  Ni  Ni272  1  0.22093610  0.96253426  0.31880138  1.0
  Ni  Ni273  1  0.55426943  0.29586759  0.31880138  1.0
  Ni  Ni274  1  0.55426943  0.62920092  0.31880138  1.0
  Ni  Ni275  1  0.55426943  0.96253426  0.31880138  1.0
  Ni  Ni276  1  0.88760277  0.29586759  0.31880138  1.0
  Ni  Ni277  1  0.88760277  0.62920092  0.31880138  1.0
  Ni  Ni278  1  0.88760277  0.96253426  0.31880138  1.0
  Ni  Ni279  1  0.32093610  0.16253426  0.36880138  1.0
  Ni  Ni280  1  0.32093610  0.49586759  0.36880138  1.0
  Ni  Ni281  1  0.32093610  0.82920092  0.36880138  1.0
  Ni  Ni282  1  0.65426943  0.16253426  0.36880138  1.0
  Ni  Ni283  1  0.65426943  0.49586759  0.36880138  1.0
  Ni  Ni284  1  0.65426943  0.82920092  0.36880138  1.0
  Ni  Ni285  1  0.98760277  0.16253426  0.36880138  1.0
  Ni  Ni286  1  0.98760277  0.49586759  0.36880138  1.0
  Ni  Ni287  1  0.98760277  0.82920092  0.36880138  1.0
  Ni  Ni288  1  0.12066206  0.17933795  0.33099308  1.0
  Ni  Ni289  1  0.12066206  0.51267128  0.33099308  1.0
  Ni  Ni290  1  0.12066206  0.84600461  0.33099308  1.0
  Ni  Ni291  1  0.45399539  0.17933795  0.33099308  1.0
  Ni  Ni292  1  0.45399539  0.51267128  0.33099308  1.0
  Ni  Ni293  1  0.45399539  0.84600461  0.33099308  1.0
  Ni  Ni294  1  0.78732872  0.17933795  0.33099308  1.0
  Ni  Ni295  1  0.78732872  0.51267128  0.33099308  1.0
  Ni  Ni296  1  0.78732872  0.84600461  0.33099308  1.0
  Ni  Ni297  1  0.22066206  0.04600461  0.38099308  1.0
  Ni  Ni298  1  0.22066206  0.37933795  0.38099308  1.0
  Ni  Ni299  1  0.22066206  0.71267128  0.38099308  1.0
  Ni  Ni300  1  0.55399539  0.04600461  0.38099308  1.0
  Ni  Ni301  1  0.55399539  0.37933795  0.38099308  1.0
  Ni  Ni302  1  0.55399539  0.71267128  0.38099308  1.0
  Ni  Ni303  1  0.88732872  0.04600461  0.38099308  1.0
  Ni  Ni304  1  0.88732872  0.37933795  0.38099308  1.0
  Ni  Ni305  1  0.88732872  0.71267128  0.38099308  1.0
  Ni  Ni306  1  0.22148419  0.21294532  0.38140415  1.0
  Ni  Ni307  1  0.22148419  0.54627866  0.38140415  1.0
  Ni  Ni308  1  0.22148419  0.87961199  0.38140415  1.0
  Ni  Ni309  1  0.55481752  0.21294532  0.38140415  1.0
  Ni  Ni310  1  0.55481752  0.54627866  0.38140415  1.0
  Ni  Ni311  1  0.55481752  0.87961199  0.38140415  1.0
  Ni  Ni312  1  0.88815086  0.21294532  0.38140415  1.0
  Ni  Ni313  1  0.88815086  0.54627866  0.38140415  1.0
  Ni  Ni314  1  0.88815086  0.87961199  0.38140415  1.0
  Ni  Ni315  1  0.12148419  0.01294532  0.33140415  1.0
  Ni  Ni316  1  0.12148419  0.34627866  0.33140415  1.0
  Ni  Ni317  1  0.12148419  0.67961199  0.33140415  1.0
  Ni  Ni318  1  0.45481752  0.01294532  0.33140415  1.0
  Ni  Ni319  1  0.45481752  0.34627866  0.33140415  1.0
  Ni  Ni320  1  0.45481752  0.67961199  0.33140415  1.0
  Ni  Ni321  1  0.78815086  0.01294532  0.33140415  1.0
  Ni  Ni322  1  0.78815086  0.34627866  0.33140415  1.0
  Ni  Ni323  1  0.78815086  0.67961199  0.33140415  1.0
  Ni  Ni324  1  0.00385837  0.27906390  0.35660968  1.0
  Ni  Ni325  1  0.00385837  0.61239723  0.35660968  1.0
  Ni  Ni326  1  0.00385837  0.94573057  0.35660968  1.0
  Ni  Ni327  1  0.33719170  0.27906390  0.35660968  1.0
  Ni  Ni328  1  0.33719170  0.61239723  0.35660968  1.0
  Ni  Ni329  1  0.33719170  0.94573057  0.35660968  1.0
  Ni  Ni330  1  0.67052503  0.27906390  0.35660968  1.0
  Ni  Ni331  1  0.67052503  0.61239723  0.35660968  1.0
  Ni  Ni332  1  0.67052503  0.94573057  0.35660968  1.0
  Ni  Ni333  1  0.23719170  0.07906390  0.30660968  1.0
  Ni  Ni334  1  0.23719170  0.41239723  0.30660968  1.0
  Ni  Ni335  1  0.23719170  0.74573057  0.30660968  1.0
  Ni  Ni336  1  0.57052503  0.07906390  0.30660968  1.0
  Ni  Ni337  1  0.57052503  0.41239723  0.30660968  1.0
  Ni  Ni338  1  0.57052503  0.74573057  0.30660968  1.0
  Ni  Ni339  1  0.90385837  0.07906390  0.30660968  1.0
  Ni  Ni340  1  0.90385837  0.41239723  0.30660968  1.0
  Ni  Ni341  1  0.90385837  0.74573057  0.30660968  1.0
  Ni  Ni342  1  0.07107312  0.24545652  0.30619862  1.0
  Ni  Ni343  1  0.07107312  0.57878986  0.30619862  1.0
  Ni  Ni344  1  0.07107312  0.91212319  0.30619862  1.0
  Ni  Ni345  1  0.40440646  0.24545652  0.30619862  1.0
  Ni  Ni346  1  0.40440646  0.57878986  0.30619862  1.0
  Ni  Ni347  1  0.40440646  0.91212319  0.30619862  1.0
  Ni  Ni348  1  0.73773979  0.24545652  0.30619862  1.0
  Ni  Ni349  1  0.73773979  0.57878986  0.30619862  1.0
  Ni  Ni350  1  0.73773979  0.91212319  0.30619862  1.0
  Ni  Ni351  1  0.17107312  0.11212319  0.35619862  1.0
  Ni  Ni352  1  0.17107312  0.44545652  0.35619862  1.0
  Ni  Ni353  1  0.17107312  0.77878986  0.35619862  1.0
  Ni  Ni354  1  0.50440646  0.11212319  0.35619862  1.0
  Ni  Ni355  1  0.50440646  0.44545652  0.35619862  1.0
  Ni  Ni356  1  0.50440646  0.77878986  0.35619862  1.0
  Ni  Ni357  1  0.83773979  0.11212319  0.35619862  1.0
  Ni  Ni358  1  0.83773979  0.44545652  0.35619862  1.0
  Ni  Ni359  1  0.83773979  0.77878986  0.35619862  1.0
  Zr  Zr360  1  0.08760277  0.19586759  0.04380138  1.0
  Zr  Zr361  1  0.08760277  0.52920092  0.04380138  1.0
  Zr  Zr362  1  0.08760277  0.86253426  0.04380138  1.0
  Zr  Zr363  1  0.42093610  0.19586759  0.04380138  1.0
  Zr  Zr364  1  0.42093610  0.52920092  0.04380138  1.0
  Zr  Zr365  1  0.42093610  0.86253426  0.04380138  1.0
  Zr  Zr366  1  0.75426943  0.19586759  0.04380138  1.0
  Zr  Zr367  1  0.75426943  0.52920092  0.04380138  1.0
  Zr  Zr368  1  0.75426943  0.86253426  0.04380138  1.0
  Zr  Zr369  1  0.18760277  0.06253426  0.09380138  1.0
  Zr  Zr370  1  0.18760277  0.39586759  0.09380138  1.0
  Zr  Zr371  1  0.18760277  0.72920092  0.09380138  1.0
  Zr  Zr372  1  0.52093610  0.06253426  0.09380138  1.0
  Zr  Zr373  1  0.52093610  0.39586759  0.09380138  1.0
  Zr  Zr374  1  0.52093610  0.72920092  0.09380138  1.0
  Zr  Zr375  1  0.85426943  0.06253426  0.09380138  1.0
  Zr  Zr376  1  0.85426943  0.39586759  0.09380138  1.0
  Zr  Zr377  1  0.85426943  0.72920092  0.09380138  1.0
  Zr  Zr378  1  0.28760277  0.26253426  0.14380138  1.0
  Zr  Zr379  1  0.28760277  0.59586759  0.14380138  1.0
  Zr  Zr380  1  0.28760277  0.92920092  0.14380138  1.0
  Zr  Zr381  1  0.62093610  0.26253426  0.14380138  1.0
  Zr  Zr382  1  0.62093610  0.59586759  0.14380138  1.0
  Zr  Zr383  1  0.62093610  0.92920092  0.14380138  1.0
  Zr  Zr384  1  0.95426943  0.26253426  0.14380138  1.0
  Zr  Zr385  1  0.95426943  0.59586759  0.14380138  1.0
  Zr  Zr386  1  0.95426943  0.92920092  0.14380138  1.0
  Zr  Zr387  1  0.05426943  0.12920092  0.19380138  1.0
  Zr  Zr388  1  0.05426943  0.46253426  0.19380138  1.0
  Zr  Zr389  1  0.05426943  0.79586759  0.19380138  1.0
  Zr  Zr390  1  0.38760277  0.12920092  0.19380138  1.0
  Zr  Zr391  1  0.38760277  0.46253426  0.19380138  1.0
  Zr  Zr392  1  0.38760277  0.79586759  0.19380138  1.0
  Zr  Zr393  1  0.72093610  0.12920092  0.19380138  1.0
  Zr  Zr394  1  0.72093610  0.46253426  0.19380138  1.0
  Zr  Zr395  1  0.72093610  0.79586759  0.19380138  1.0
  Zr  Zr396  1  0.15426943  0.32920092  0.24380138  1.0
  Zr  Zr397  1  0.15426943  0.66253426  0.24380138  1.0
  Zr  Zr398  1  0.15426943  0.99586759  0.24380138  1.0
  Zr  Zr399  1  0.48760277  0.32920092  0.24380138  1.0
  Zr  Zr400  1  0.48760277  0.66253426  0.24380138  1.0
  Zr  Zr401  1  0.48760277  0.99586759  0.24380138  1.0
  Zr  Zr402  1  0.82093610  0.32920092  0.24380138  1.0
  Zr  Zr403  1  0.82093610  0.66253426  0.24380138  1.0
  Zr  Zr404  1  0.82093610  0.99586759  0.24380138  1.0
  Zr  Zr405  1  0.25426943  0.19586759  0.29380138  1.0
  Zr  Zr406  1  0.25426943  0.52920092  0.29380138  1.0
  Zr  Zr407  1  0.25426943  0.86253426  0.29380138  1.0
  Zr  Zr408  1  0.58760277  0.19586759  0.29380138  1.0
  Zr  Zr409  1  0.58760277  0.52920092  0.29380138  1.0
  Zr  Zr410  1  0.58760277  0.86253426  0.29380138  1.0
  Zr  Zr411  1  0.92093610  0.19586759  0.29380138  1.0
  Zr  Zr412  1  0.92093610  0.52920092  0.29380138  1.0
  Zr  Zr413  1  0.92093610  0.86253426  0.29380138  1.0
  Zr  Zr414  1  0.02093610  0.06253426  0.34380138  1.0
  Zr  Zr415  1  0.02093610  0.39586759  0.34380138  1.0
  Zr  Zr416  1  0.02093610  0.72920092  0.34380138  1.0
  Zr  Zr417  1  0.35426943  0.06253426  0.34380138  1.0
  Zr  Zr418  1  0.35426943  0.39586759  0.34380138  1.0
  Zr  Zr419  1  0.35426943  0.72920092  0.34380138  1.0
  Zr  Zr420  1  0.68760277  0.06253426  0.34380138  1.0
  Zr  Zr421  1  0.68760277  0.39586759  0.34380138  1.0
  Zr  Zr422  1  0.68760277  0.72920092  0.34380138  1.0
  Zr  Zr423  1  0.12093610  0.26253426  0.39380138  1.0
  Zr  Zr424  1  0.12093610  0.59586759  0.39380138  1.0
  Zr  Zr425  1  0.12093610  0.92920092  0.39380138  1.0
  Zr  Zr426  1  0.45426943  0.26253426  0.39380138  1.0
  Zr  Zr427  1  0.45426943  0.59586759  0.39380138  1.0
  Zr  Zr428  1  0.45426943  0.92920092  0.39380138  1.0
  Zr  Zr429  1  0.78760277  0.26253426  0.39380138  1.0
  Zr  Zr430  1  0.78760277  0.59586759  0.39380138  1.0
  Zr  Zr431  1  0.78760277  0.92920092  0.39380138  1.0
