# generated using pymatgen
data_ZrNi
_symmetry_space_group_name_H-M   'P 1'
_cell_length_a   19.95982499
_cell_length_b   29.13885734
_cell_length_c   27.67910219
_cell_angle_alpha   94.91985925
_cell_angle_beta   93.21460155
_cell_angle_gamma   100.04631950
_symmetry_Int_Tables_number   1
_chemical_formula_structural   ZrNi
_chemical_formula_sum   'Zr180 Ni180'
_cell_volume   15751.65031785
_cell_formula_units_Z   180
loop_
 _symmetry_equiv_pos_site_id
 _symmetry_equiv_pos_as_xyz
  1  'x, y, z'
loop_
 _atom_site_type_symbol
 _atom_site_label
 _atom_site_symmetry_multiplicity
 _atom_site_fract_x
 _atom_site_fract_y
 _atom_site_fract_z
 _atom_site_occupancy
  Ni  Ni0  1  0.21555595  0.17294138  0.07049023  1.0
  Ni  Ni1  1  0.21555595  0.50627472  0.07049023  1.0
  Ni  Ni2  1  0.21555595  0.83960805  0.07049023  1.0
  Ni  Ni3  1  0.54888928  0.17294138  0.07049023  1.0
  Ni  Ni4  1  0.54888928  0.50627472  0.07049023  1.0
  Ni  Ni5  1  0.54888928  0.83960805  0.07049023  1.0
  Ni  Ni6  1  0.88222262  0.17294138  0.07049023  1.0
  Ni  Ni7  1  0.88222262  0.50627472  0.07049023  1.0
  Ni  Ni8  1  0.88222262  0.83960805  0.07049023  1.0
  Ni  Ni9  1  0.11299185  0.27550549  0.03202869  1.0
  Ni  Ni10  1  0.11299185  0.60883882  0.03202869  1.0
  Ni  Ni11  1  0.11299185  0.94217215  0.03202869  1.0
  Ni  Ni12  1  0.44632518  0.27550549  0.03202869  1.0
  Ni  Ni13  1  0.44632518  0.60883882  0.03202869  1.0
  Ni  Ni14  1  0.44632518  0.94217215  0.03202869  1.0
  Ni  Ni15  1  0.77965851  0.27550549  0.03202869  1.0
  Ni  Ni16  1  0.77965851  0.60883882  0.03202869  1.0
  Ni  Ni17  1  0.77965851  0.94217215  0.03202869  1.0
  Ni  Ni18  1  0.32290559  0.28859708  0.00643285  1.0
  Ni  Ni19  1  0.32290559  0.62193041  0.00643285  1.0
  Ni  Ni20  1  0.32290559  0.95526374  0.00643285  1.0
  Ni  Ni21  1  0.65623892  0.28859708  0.00643285  1.0
  Ni  Ni22  1  0.65623892  0.62193041  0.00643285  1.0
  Ni  Ni23  1  0.65623892  0.95526374  0.00643285  1.0
  Ni  Ni24  1  0.98957226  0.28859708  0.00643285  1.0
  Ni  Ni25  1  0.98957226  0.62193041  0.00643285  1.0
  Ni  Ni26  1  0.98957226  0.95526374  0.00643285  1.0
  Ni  Ni27  1  0.09213636  0.18603297  0.04489438  1.0
  Ni  Ni28  1  0.09213636  0.51936631  0.04489438  1.0
  Ni  Ni29  1  0.09213636  0.85269964  0.04489438  1.0
  Ni  Ni30  1  0.42546969  0.18603297  0.04489438  1.0
  Ni  Ni31  1  0.42546969  0.51936631  0.04489438  1.0
  Ni  Ni32  1  0.42546969  0.85269964  0.04489438  1.0
  Ni  Ni33  1  0.75880303  0.18603297  0.04489438  1.0
  Ni  Ni34  1  0.75880303  0.51936631  0.04489438  1.0
  Ni  Ni35  1  0.75880303  0.85269964  0.04489438  1.0
  Ni  Ni36  1  0.08735082  0.30114651  0.14741331  1.0
  Ni  Ni37  1  0.08735082  0.63447985  0.14741331  1.0
  Ni  Ni38  1  0.08735082  0.96781318  0.14741331  1.0
  Ni  Ni39  1  0.42068415  0.30114651  0.14741331  1.0
  Ni  Ni40  1  0.42068415  0.63447985  0.14741331  1.0
  Ni  Ni41  1  0.42068415  0.96781318  0.14741331  1.0
  Ni  Ni42  1  0.75401749  0.30114651  0.14741331  1.0
  Ni  Ni43  1  0.75401749  0.63447985  0.14741331  1.0
  Ni  Ni44  1  0.75401749  0.96781318  0.14741331  1.0
  Ni  Ni45  1  0.31812005  0.07037728  0.10895177  1.0
  Ni  Ni46  1  0.31812005  0.40371062  0.10895177  1.0
  Ni  Ni47  1  0.31812005  0.73704395  0.10895177  1.0
  Ni  Ni48  1  0.65145338  0.07037728  0.10895177  1.0
  Ni  Ni49  1  0.65145338  0.40371062  0.10895177  1.0
  Ni  Ni50  1  0.65145338  0.73704395  0.10895177  1.0
  Ni  Ni51  1  0.98478672  0.07037728  0.10895177  1.0
  Ni  Ni52  1  0.98478672  0.40371062  0.10895177  1.0
  Ni  Ni53  1  0.98478672  0.73704395  0.10895177  1.0
  Ni  Ni54  1  0.19470046  0.08346887  0.08335592  1.0
  Ni  Ni55  1  0.19470046  0.41680221  0.08335592  1.0
  Ni  Ni56  1  0.19470046  0.75013554  0.08335592  1.0
  Ni  Ni57  1  0.52803379  0.08346887  0.08335592  1.0
  Ni  Ni58  1  0.52803379  0.41680221  0.08335592  1.0
  Ni  Ni59  1  0.52803379  0.75013554  0.08335592  1.0
  Ni  Ni60  1  0.86136713  0.08346887  0.08335592  1.0
  Ni  Ni61  1  0.86136713  0.41680221  0.08335592  1.0
  Ni  Ni62  1  0.86136713  0.75013554  0.08335592  1.0
  Ni  Ni63  1  0.29726456  0.31423810  0.12181746  1.0
  Ni  Ni64  1  0.29726456  0.64757144  0.12181746  1.0
  Ni  Ni65  1  0.29726456  0.98090477  0.12181746  1.0
  Ni  Ni66  1  0.63059790  0.31423810  0.12181746  1.0
  Ni  Ni67  1  0.63059790  0.64757144  0.12181746  1.0
  Ni  Ni68  1  0.63059790  0.98090477  0.12181746  1.0
  Ni  Ni69  1  0.96393123  0.31423810  0.12181746  1.0
  Ni  Ni70  1  0.96393123  0.64757144  0.12181746  1.0
  Ni  Ni71  1  0.96393123  0.98090477  0.12181746  1.0
  Ni  Ni72  1  0.29247903  0.09601831  0.22433638  1.0
  Ni  Ni73  1  0.29247903  0.42935164  0.22433638  1.0
  Ni  Ni74  1  0.29247903  0.76268497  0.22433638  1.0
  Ni  Ni75  1  0.62581236  0.09601831  0.22433638  1.0
  Ni  Ni76  1  0.62581236  0.42935164  0.22433638  1.0
  Ni  Ni77  1  0.62581236  0.76268497  0.22433638  1.0
  Ni  Ni78  1  0.95914569  0.09601831  0.22433638  1.0
  Ni  Ni79  1  0.95914569  0.42935164  0.22433638  1.0
  Ni  Ni80  1  0.95914569  0.76268497  0.22433638  1.0
  Ni  Ni81  1  0.18991492  0.19858241  0.18587485  1.0
  Ni  Ni82  1  0.18991492  0.53191574  0.18587485  1.0
  Ni  Ni83  1  0.18991492  0.86524908  0.18587485  1.0
  Ni  Ni84  1  0.52324826  0.19858241  0.18587485  1.0
  Ni  Ni85  1  0.52324826  0.53191574  0.18587485  1.0
  Ni  Ni86  1  0.52324826  0.86524908  0.18587485  1.0
  Ni  Ni87  1  0.85658159  0.19858241  0.18587485  1.0
  Ni  Ni88  1  0.85658159  0.53191574  0.18587485  1.0
  Ni  Ni89  1  0.85658159  0.86524908  0.18587485  1.0
  Ni  Ni90  1  0.06649533  0.21167400  0.16027900  1.0
  Ni  Ni91  1  0.06649533  0.54500733  0.16027900  1.0
  Ni  Ni92  1  0.06649533  0.87834067  0.16027900  1.0
  Ni  Ni93  1  0.39982867  0.21167400  0.16027900  1.0
  Ni  Ni94  1  0.39982867  0.54500733  0.16027900  1.0
  Ni  Ni95  1  0.39982867  0.87834067  0.16027900  1.0
  Ni  Ni96  1  0.73316200  0.21167400  0.16027900  1.0
  Ni  Ni97  1  0.73316200  0.54500733  0.16027900  1.0
  Ni  Ni98  1  0.73316200  0.87834067  0.16027900  1.0
  Ni  Ni99  1  0.16905944  0.10910990  0.19874054  1.0
  Ni  Ni100  1  0.16905944  0.44244323  0.19874054  1.0
  Ni  Ni101  1  0.16905944  0.77577656  0.19874054  1.0
  Ni  Ni102  1  0.50239277  0.10910990  0.19874054  1.0
  Ni  Ni103  1  0.50239277  0.44244323  0.19874054  1.0
  Ni  Ni104  1  0.50239277  0.77577656  0.19874054  1.0
  Ni  Ni105  1  0.83572610  0.10910990  0.19874054  1.0
  Ni  Ni106  1  0.83572610  0.44244323  0.19874054  1.0
  Ni  Ni107  1  0.83572610  0.77577656  0.19874054  1.0
  Ni  Ni108  1  0.16427390  0.22422344  0.30125946  1.0
  Ni  Ni109  1  0.16427390  0.55755677  0.30125946  1.0
  Ni  Ni110  1  0.16427390  0.89089010  0.30125946  1.0
  Ni  Ni111  1  0.49760723  0.22422344  0.30125946  1.0
  Ni  Ni112  1  0.49760723  0.55755677  0.30125946  1.0
  Ni  Ni113  1  0.49760723  0.89089010  0.30125946  1.0
  Ni  Ni114  1  0.83094056  0.22422344  0.30125946  1.0
  Ni  Ni115  1  0.83094056  0.55755677  0.30125946  1.0
  Ni  Ni116  1  0.83094056  0.89089010  0.30125946  1.0
  Ni  Ni117  1  0.06170979  0.32678754  0.26279792  1.0
  Ni  Ni118  1  0.06170979  0.66012087  0.26279792  1.0
  Ni  Ni119  1  0.06170979  0.99345421  0.26279792  1.0
  Ni  Ni120  1  0.39504313  0.32678754  0.26279792  1.0
  Ni  Ni121  1  0.39504313  0.66012087  0.26279792  1.0
  Ni  Ni122  1  0.39504313  0.99345421  0.26279792  1.0
  Ni  Ni123  1  0.72837646  0.32678754  0.26279792  1.0
  Ni  Ni124  1  0.72837646  0.66012087  0.26279792  1.0
  Ni  Ni125  1  0.72837646  0.99345421  0.26279792  1.0
  Ni  Ni126  1  0.27162354  0.00654579  0.23720208  1.0
  Ni  Ni127  1  0.27162354  0.33987913  0.23720208  1.0
  Ni  Ni128  1  0.27162354  0.67321246  0.23720208  1.0
  Ni  Ni129  1  0.60495687  0.00654579  0.23720208  1.0
  Ni  Ni130  1  0.60495687  0.33987913  0.23720208  1.0
  Ni  Ni131  1  0.60495687  0.67321246  0.23720208  1.0
  Ni  Ni132  1  0.93829021  0.00654579  0.23720208  1.0
  Ni  Ni133  1  0.93829021  0.33987913  0.23720208  1.0
  Ni  Ni134  1  0.93829021  0.67321246  0.23720208  1.0
  Ni  Ni135  1  0.04085431  0.23731503  0.27566362  1.0
  Ni  Ni136  1  0.04085431  0.57064836  0.27566362  1.0
  Ni  Ni137  1  0.04085431  0.90398169  0.27566362  1.0
  Ni  Ni138  1  0.37418764  0.23731503  0.27566362  1.0
  Ni  Ni139  1  0.37418764  0.57064836  0.27566362  1.0
  Ni  Ni140  1  0.37418764  0.90398169  0.27566362  1.0
  Ni  Ni141  1  0.70752097  0.23731503  0.27566362  1.0
  Ni  Ni142  1  0.70752097  0.57064836  0.27566362  1.0
  Ni  Ni143  1  0.70752097  0.90398169  0.27566362  1.0
  Ni  Ni144  1  0.03606877  0.01909523  0.37818254  1.0
  Ni  Ni145  1  0.03606877  0.35242856  0.37818254  1.0
  Ni  Ni146  1  0.03606877  0.68576190  0.37818254  1.0
  Ni  Ni147  1  0.36940210  0.01909523  0.37818254  1.0
  Ni  Ni148  1  0.36940210  0.35242856  0.37818254  1.0
  Ni  Ni149  1  0.36940210  0.68576190  0.37818254  1.0
  Ni  Ni150  1  0.70273544  0.01909523  0.37818254  1.0
  Ni  Ni151  1  0.70273544  0.35242856  0.37818254  1.0
  Ni  Ni152  1  0.70273544  0.68576190  0.37818254  1.0
  Ni  Ni153  1  0.26683800  0.12165933  0.33972100  1.0
  Ni  Ni154  1  0.26683800  0.45499267  0.33972100  1.0
  Ni  Ni155  1  0.26683800  0.78832600  0.33972100  1.0
  Ni  Ni156  1  0.60017133  0.12165933  0.33972100  1.0
  Ni  Ni157  1  0.60017133  0.45499267  0.33972100  1.0
  Ni  Ni158  1  0.60017133  0.78832600  0.33972100  1.0
  Ni  Ni159  1  0.93350467  0.12165933  0.33972100  1.0
  Ni  Ni160  1  0.93350467  0.45499267  0.33972100  1.0
  Ni  Ni161  1  0.93350467  0.78832600  0.33972100  1.0
  Ni  Ni162  1  0.14341841  0.13475092  0.31412515  1.0
  Ni  Ni163  1  0.14341841  0.46808426  0.31412515  1.0
  Ni  Ni164  1  0.14341841  0.80141759  0.31412515  1.0
  Ni  Ni165  1  0.47675174  0.13475092  0.31412515  1.0
  Ni  Ni166  1  0.47675174  0.46808426  0.31412515  1.0
  Ni  Ni167  1  0.47675174  0.80141759  0.31412515  1.0
  Ni  Ni168  1  0.81008508  0.13475092  0.31412515  1.0
  Ni  Ni169  1  0.81008508  0.46808426  0.31412515  1.0
  Ni  Ni170  1  0.81008508  0.80141759  0.31412515  1.0
  Ni  Ni171  1  0.24598251  0.03218682  0.35258669  1.0
  Ni  Ni172  1  0.24598251  0.36552015  0.35258669  1.0
  Ni  Ni173  1  0.24598251  0.69885349  0.35258669  1.0
  Ni  Ni174  1  0.57931585  0.03218682  0.35258669  1.0
  Ni  Ni175  1  0.57931585  0.36552015  0.35258669  1.0
  Ni  Ni176  1  0.57931585  0.69885349  0.35258669  1.0
  Ni  Ni177  1  0.91264918  0.03218682  0.35258669  1.0
  Ni  Ni178  1  0.91264918  0.36552015  0.35258669  1.0
  Ni  Ni179  1  0.91264918  0.69885349  0.35258669  1.0
  Zr  Zr180  1  0.13152877  0.10884856  0.00425254  1.0
  Zr  Zr181  1  0.13152877  0.44218190  0.00425254  1.0
  Zr  Zr182  1  0.13152877  0.77551523  0.00425254  1.0
  Zr  Zr183  1  0.46486210  0.10884856  0.00425254  1.0
  Zr  Zr184  1  0.46486210  0.44218190  0.00425254  1.0
  Zr  Zr185  1  0.46486210  0.77551523  0.00425254  1.0
  Zr  Zr186  1  0.79819544  0.10884856  0.00425254  1.0
  Zr  Zr187  1  0.79819544  0.44218190  0.00425254  1.0
  Zr  Zr188  1  0.79819544  0.77551523  0.00425254  1.0
  Zr  Zr189  1  0.23409287  0.00628446  0.04271408  1.0
  Zr  Zr190  1  0.23409287  0.33961779  0.04271408  1.0
  Zr  Zr191  1  0.23409287  0.67295113  0.04271408  1.0
  Zr  Zr192  1  0.56742621  0.00628446  0.04271408  1.0
  Zr  Zr193  1  0.56742621  0.33961779  0.04271408  1.0
  Zr  Zr194  1  0.56742621  0.67295113  0.04271408  1.0
  Zr  Zr195  1  0.90075954  0.00628446  0.04271408  1.0
  Zr  Zr196  1  0.90075954  0.33961779  0.04271408  1.0
  Zr  Zr197  1  0.90075954  0.67295113  0.04271408  1.0
  Zr  Zr198  1  0.07359944  0.01935656  0.07267054  1.0
  Zr  Zr199  1  0.07359944  0.35268990  0.07267054  1.0
  Zr  Zr200  1  0.07359944  0.68602323  0.07267054  1.0
  Zr  Zr201  1  0.40693277  0.01935656  0.07267054  1.0
  Zr  Zr202  1  0.40693277  0.35268990  0.07267054  1.0
  Zr  Zr203  1  0.40693277  0.68602323  0.07267054  1.0
  Zr  Zr204  1  0.74026610  0.01935656  0.07267054  1.0
  Zr  Zr205  1  0.74026610  0.35268990  0.07267054  1.0
  Zr  Zr206  1  0.74026610  0.68602323  0.07267054  1.0
  Zr  Zr207  1  0.30436867  0.12192067  0.03420900  1.0
  Zr  Zr208  1  0.30436867  0.45525400  0.03420900  1.0
  Zr  Zr209  1  0.30436867  0.78858733  0.03420900  1.0
  Zr  Zr210  1  0.63770200  0.12192067  0.03420900  1.0
  Zr  Zr211  1  0.63770200  0.45525400  0.03420900  1.0
  Zr  Zr212  1  0.63770200  0.78858733  0.03420900  1.0
  Zr  Zr213  1  0.97103533  0.12192067  0.03420900  1.0
  Zr  Zr214  1  0.97103533  0.45525400  0.03420900  1.0
  Zr  Zr215  1  0.97103533  0.78858733  0.03420900  1.0
  Zr  Zr216  1  0.00332364  0.23705369  0.08117562  1.0
  Zr  Zr217  1  0.00332364  0.57038703  0.08117562  1.0
  Zr  Zr218  1  0.00332364  0.90372036  0.08117562  1.0
  Zr  Zr219  1  0.33665697  0.23705369  0.08117562  1.0
  Zr  Zr220  1  0.33665697  0.57038703  0.08117562  1.0
  Zr  Zr221  1  0.33665697  0.90372036  0.08117562  1.0
  Zr  Zr222  1  0.66999031  0.23705369  0.08117562  1.0
  Zr  Zr223  1  0.66999031  0.57038703  0.08117562  1.0
  Zr  Zr224  1  0.66999031  0.90372036  0.08117562  1.0
  Zr  Zr225  1  0.10588774  0.13448959  0.11963715  1.0
  Zr  Zr226  1  0.10588774  0.46782292  0.11963715  1.0
  Zr  Zr227  1  0.10588774  0.80115626  0.11963715  1.0
  Zr  Zr228  1  0.43922108  0.13448959  0.11963715  1.0
  Zr  Zr229  1  0.43922108  0.46782292  0.11963715  1.0
  Zr  Zr230  1  0.43922108  0.80115626  0.11963715  1.0
  Zr  Zr231  1  0.77255441  0.13448959  0.11963715  1.0
  Zr  Zr232  1  0.77255441  0.46782292  0.11963715  1.0
  Zr  Zr233  1  0.77255441  0.80115626  0.11963715  1.0
  Zr  Zr234  1  0.27872764  0.14756169  0.14959362  1.0
  Zr  Zr235  1  0.27872764  0.48089503  0.14959362  1.0
  Zr  Zr236  1  0.27872764  0.81422836  0.14959362  1.0
  Zr  Zr237  1  0.61206097  0.14756169  0.14959362  1.0
  Zr  Zr238  1  0.61206097  0.48089503  0.14959362  1.0
  Zr  Zr239  1  0.61206097  0.81422836  0.14959362  1.0
  Zr  Zr240  1  0.94539431  0.14756169  0.14959362  1.0
  Zr  Zr241  1  0.94539431  0.48089503  0.14959362  1.0
  Zr  Zr242  1  0.94539431  0.81422836  0.14959362  1.0
  Zr  Zr243  1  0.17616354  0.25012579  0.11113208  1.0
  Zr  Zr244  1  0.17616354  0.58345913  0.11113208  1.0
  Zr  Zr245  1  0.17616354  0.91679246  0.11113208  1.0
  Zr  Zr246  1  0.50949687  0.25012579  0.11113208  1.0
  Zr  Zr247  1  0.50949687  0.58345913  0.11113208  1.0
  Zr  Zr248  1  0.50949687  0.91679246  0.11113208  1.0
  Zr  Zr249  1  0.84283021  0.25012579  0.11113208  1.0
  Zr  Zr250  1  0.84283021  0.58345913  0.11113208  1.0
  Zr  Zr251  1  0.84283021  0.91679246  0.11113208  1.0
  Zr  Zr252  1  0.20845185  0.03192549  0.15809869  1.0
  Zr  Zr253  1  0.20845185  0.36525882  0.15809869  1.0
  Zr  Zr254  1  0.20845185  0.69859215  0.15809869  1.0
  Zr  Zr255  1  0.54178518  0.03192549  0.15809869  1.0
  Zr  Zr256  1  0.54178518  0.36525882  0.15809869  1.0
  Zr  Zr257  1  0.54178518  0.69859215  0.15809869  1.0
  Zr  Zr258  1  0.87511851  0.03192549  0.15809869  1.0
  Zr  Zr259  1  0.87511851  0.36525882  0.15809869  1.0
  Zr  Zr260  1  0.87511851  0.69859215  0.15809869  1.0
  Zr  Zr261  1  0.31101595  0.26269472  0.19656023  1.0
  Zr  Zr262  1  0.31101595  0.59602805  0.19656023  1.0
  Zr  Zr263  1  0.31101595  0.92936138  0.19656023  1.0
  Zr  Zr264  1  0.64434928  0.26269472  0.19656023  1.0
  Zr  Zr265  1  0.64434928  0.59602805  0.19656023  1.0
  Zr  Zr266  1  0.64434928  0.92936138  0.19656023  1.0
  Zr  Zr267  1  0.97768262  0.26269472  0.19656023  1.0
  Zr  Zr268  1  0.97768262  0.59602805  0.19656023  1.0
  Zr  Zr269  1  0.97768262  0.92936138  0.19656023  1.0
  Zr  Zr270  1  0.15052251  0.27576682  0.22651669  1.0
  Zr  Zr271  1  0.15052251  0.60910015  0.22651669  1.0
  Zr  Zr272  1  0.15052251  0.94243349  0.22651669  1.0
  Zr  Zr273  1  0.48385585  0.27576682  0.22651669  1.0
  Zr  Zr274  1  0.48385585  0.60910015  0.22651669  1.0
  Zr  Zr275  1  0.48385585  0.94243349  0.22651669  1.0
  Zr  Zr276  1  0.81718918  0.27576682  0.22651669  1.0
  Zr  Zr277  1  0.81718918  0.60910015  0.22651669  1.0
  Zr  Zr278  1  0.81718918  0.94243349  0.22651669  1.0
  Zr  Zr279  1  0.04795841  0.04499759  0.18805515  1.0
  Zr  Zr280  1  0.04795841  0.37833092  0.18805515  1.0
  Zr  Zr281  1  0.04795841  0.71166426  0.18805515  1.0
  Zr  Zr282  1  0.38129174  0.04499759  0.18805515  1.0
  Zr  Zr283  1  0.38129174  0.37833092  0.18805515  1.0
  Zr  Zr284  1  0.38129174  0.71166426  0.18805515  1.0
  Zr  Zr285  1  0.71462508  0.04499759  0.18805515  1.0
  Zr  Zr286  1  0.71462508  0.37833092  0.18805515  1.0
  Zr  Zr287  1  0.71462508  0.71166426  0.18805515  1.0
  Zr  Zr288  1  0.08024672  0.16013062  0.23502177  1.0
  Zr  Zr289  1  0.08024672  0.49346395  0.23502177  1.0
  Zr  Zr290  1  0.08024672  0.82679728  0.23502177  1.0
  Zr  Zr291  1  0.41358005  0.16013062  0.23502177  1.0
  Zr  Zr292  1  0.41358005  0.49346395  0.23502177  1.0
  Zr  Zr293  1  0.41358005  0.82679728  0.23502177  1.0
  Zr  Zr294  1  0.74691338  0.16013062  0.23502177  1.0
  Zr  Zr295  1  0.74691338  0.49346395  0.23502177  1.0
  Zr  Zr296  1  0.74691338  0.82679728  0.23502177  1.0
  Zr  Zr297  1  0.18281082  0.05756651  0.27348331  1.0
  Zr  Zr298  1  0.18281082  0.39089985  0.27348331  1.0
  Zr  Zr299  1  0.18281082  0.72423318  0.27348331  1.0
  Zr  Zr300  1  0.51614415  0.05756651  0.27348331  1.0
  Zr  Zr301  1  0.51614415  0.39089985  0.27348331  1.0
  Zr  Zr302  1  0.51614415  0.72423318  0.27348331  1.0
  Zr  Zr303  1  0.84947749  0.05756651  0.27348331  1.0
  Zr  Zr304  1  0.84947749  0.39089985  0.27348331  1.0
  Zr  Zr305  1  0.84947749  0.72423318  0.27348331  1.0
  Zr  Zr306  1  0.02231738  0.07063862  0.30343977  1.0
  Zr  Zr307  1  0.02231738  0.40397195  0.30343977  1.0
  Zr  Zr308  1  0.02231738  0.73730528  0.30343977  1.0
  Zr  Zr309  1  0.35565072  0.07063862  0.30343977  1.0
  Zr  Zr310  1  0.35565072  0.40397195  0.30343977  1.0
  Zr  Zr311  1  0.35565072  0.73730528  0.30343977  1.0
  Zr  Zr312  1  0.68898405  0.07063862  0.30343977  1.0
  Zr  Zr313  1  0.68898405  0.40397195  0.30343977  1.0
  Zr  Zr314  1  0.68898405  0.73730528  0.30343977  1.0
  Zr  Zr315  1  0.25308662  0.17320272  0.26497823  1.0
  Zr  Zr316  1  0.25308662  0.50653605  0.26497823  1.0
  Zr  Zr317  1  0.25308662  0.83986938  0.26497823  1.0
  Zr  Zr318  1  0.58641995  0.17320272  0.26497823  1.0
  Zr  Zr319  1  0.58641995  0.50653605  0.26497823  1.0
  Zr  Zr320  1  0.58641995  0.83986938  0.26497823  1.0
  Zr  Zr321  1  0.91975328  0.17320272  0.26497823  1.0
  Zr  Zr322  1  0.91975328  0.50653605  0.26497823  1.0
  Zr  Zr323  1  0.91975328  0.83986938  0.26497823  1.0
  Zr  Zr324  1  0.28537492  0.28833574  0.31194485  1.0
  Zr  Zr325  1  0.28537492  0.62166908  0.31194485  1.0
  Zr  Zr326  1  0.28537492  0.95500241  0.31194485  1.0
  Zr  Zr327  1  0.61870826  0.28833574  0.31194485  1.0
  Zr  Zr328  1  0.61870826  0.62166908  0.31194485  1.0
  Zr  Zr329  1  0.61870826  0.95500241  0.31194485  1.0
  Zr  Zr330  1  0.95204159  0.28833574  0.31194485  1.0
  Zr  Zr331  1  0.95204159  0.62166908  0.31194485  1.0
  Zr  Zr332  1  0.95204159  0.95500241  0.31194485  1.0
  Zr  Zr333  1  0.05460569  0.18577164  0.35040638  1.0
  Zr  Zr334  1  0.05460569  0.51910497  0.35040638  1.0
  Zr  Zr335  1  0.05460569  0.85243831  0.35040638  1.0
  Zr  Zr336  1  0.38793903  0.18577164  0.35040638  1.0
  Zr  Zr337  1  0.38793903  0.51910497  0.35040638  1.0
  Zr  Zr338  1  0.38793903  0.85243831  0.35040638  1.0
  Zr  Zr339  1  0.72127236  0.18577164  0.35040638  1.0
  Zr  Zr340  1  0.72127236  0.51910497  0.35040638  1.0
  Zr  Zr341  1  0.72127236  0.85243831  0.35040638  1.0
  Zr  Zr342  1  0.22744559  0.19884374  0.38036285  1.0
  Zr  Zr343  1  0.22744559  0.53217708  0.38036285  1.0
  Zr  Zr344  1  0.22744559  0.86551041  0.38036285  1.0
  Zr  Zr345  1  0.56077892  0.19884374  0.38036285  1.0
  Zr  Zr346  1  0.56077892  0.53217708  0.38036285  1.0
  Zr  Zr347  1  0.56077892  0.86551041  0.38036285  1.0
  Zr  Zr348  1  0.89411226  0.19884374  0.38036285  1.0
  Zr  Zr349  1  0.89411226  0.53217708  0.38036285  1.0
  Zr  Zr350  1  0.89411226  0.86551041  0.38036285  1.0
  Zr  Zr351  1  0.12488149  0.30140785  0.34190131  1.0
  Zr  Zr352  1  0.12488149  0.63474118  0.34190131  1.0
  Zr  Zr353  1  0.12488149  0.96807451  0.34190131  1.0
  Zr  Zr354  1  0.45821482  0.30140785  0.34190131  1.0
  Zr  Zr355  1  0.45821482  0.63474118  0.34190131  1.0
  Zr  Zr356  1  0.45821482  0.96807451  0.34190131  1.0
  Zr  Zr357  1  0.79154815  0.30140785  0.34190131  1.0
  Zr  Zr358  1  0.79154815  0.63474118  0.34190131  1.0
  Zr  Zr359  1  0.79154815  0.96807451  0.34190131  1.0
