# generated using pymatgen
data_ZrNi3
_symmetry_space_group_name_H-M   'P 1'
_cell_length_a   12.91555800
_cell_length_b   42.19156672
_cell_length_c   42.52510208
_cell_angle_alpha   139.10660535
_cell_angle_beta   90.00000000
_cell_angle_gamma   90.00000000
_symmetry_Int_Tables_number   1
_chemical_formula_structural   ZrNi3
_chemical_formula_sum   'Zr108 Ni324'
_cell_volume   15170.35691892
_cell_formula_units_Z   108
loop_
 _symmetry_equiv_pos_site_id
 _symmetry_equiv_pos_as_xyz
  1  'x, y, z'
loop_
 _atom_site_type_symbol
 _atom_site_label
 _atom_site_symmetry_multiplicity
 _atom_site_fract_x
 _atom_site_fract_y
 _atom_site_fract_z
 _atom_site_occupancy
  Zr  Zr0  1  0.25000000  0.05555556  0.10416667  1.0
  Zr  Zr1  1  0.25000000  0.38888889  0.10416667  1.0
  Zr  Zr2  1  0.25000000  0.72222222  0.10416667  1.0
  Zr  Zr3  1  0.58333333  0.05555556  0.10416667  1.0
  Zr  Zr4  1  0.58333333  0.38888889  0.10416667  1.0
  Zr  Zr5  1  0.58333333  0.72222222  0.10416667  1.0
  Zr  Zr6  1  0.91666667  0.05555556  0.10416667  1.0
  Zr  Zr7  1  0.91666667  0.38888889  0.10416667  1.0
  Zr  Zr8  1  0.91666667  0.72222222  0.10416667  1.0
  Zr  Zr9  1  0.25000000  0.22222222  0.04166667  1.0
  Zr  Zr10  1  0.25000000  0.55555556  0.04166667  1.0
  Zr  Zr11  1  0.25000000  0.88888889  0.04166667  1.0
  Zr  Zr12  1  0.58333333  0.22222222  0.04166667  1.0
  Zr  Zr13  1  0.58333333  0.55555556  0.04166667  1.0
  Zr  Zr14  1  0.58333333  0.88888889  0.04166667  1.0
  Zr  Zr15  1  0.91666667  0.22222222  0.04166667  1.0
  Zr  Zr16  1  0.91666667  0.55555556  0.04166667  1.0
  Zr  Zr17  1  0.91666667  0.88888889  0.04166667  1.0
  Zr  Zr18  1  0.08333333  0.11111111  0.08333333  1.0
  Zr  Zr19  1  0.08333333  0.44444444  0.08333333  1.0
  Zr  Zr20  1  0.08333333  0.77777778  0.08333333  1.0
  Zr  Zr21  1  0.41666667  0.11111111  0.08333333  1.0
  Zr  Zr22  1  0.41666667  0.44444444  0.08333333  1.0
  Zr  Zr23  1  0.41666667  0.77777778  0.08333333  1.0
  Zr  Zr24  1  0.75000000  0.11111111  0.08333333  1.0
  Zr  Zr25  1  0.75000000  0.44444444  0.08333333  1.0
  Zr  Zr26  1  0.75000000  0.77777778  0.08333333  1.0
  Zr  Zr27  1  0.08333333  0.27777778  0.02083333  1.0
  Zr  Zr28  1  0.08333333  0.61111111  0.02083333  1.0
  Zr  Zr29  1  0.08333333  0.94444444  0.02083333  1.0
  Zr  Zr30  1  0.41666667  0.27777778  0.02083333  1.0
  Zr  Zr31  1  0.41666667  0.61111111  0.02083333  1.0
  Zr  Zr32  1  0.41666667  0.94444444  0.02083333  1.0
  Zr  Zr33  1  0.75000000  0.27777778  0.02083333  1.0
  Zr  Zr34  1  0.75000000  0.61111111  0.02083333  1.0
  Zr  Zr35  1  0.75000000  0.94444444  0.02083333  1.0
  Ni  Ni36  1  0.25000000  0.14071500  0.01384062  1.0
  Ni  Ni37  1  0.25000000  0.47404833  0.01384062  1.0
  Ni  Ni38  1  0.25000000  0.80738167  0.01384063  1.0
  Ni  Ni39  1  0.58333333  0.14071500  0.01384062  1.0
  Ni  Ni40  1  0.58333333  0.47404833  0.01384062  1.0
  Ni  Ni41  1  0.58333333  0.80738167  0.01384063  1.0
  Ni  Ni42  1  0.91666667  0.14071500  0.01384062  1.0
  Ni  Ni43  1  0.91666667  0.47404833  0.01384062  1.0
  Ni  Ni44  1  0.91666667  0.80738167  0.01384063  1.0
  Ni  Ni45  1  0.25000000  0.30738167  0.07634063  1.0
  Ni  Ni46  1  0.25000000  0.64071500  0.07634063  1.0
  Ni  Ni47  1  0.25000000  0.97404833  0.07634063  1.0
  Ni  Ni48  1  0.58333333  0.30738167  0.07634063  1.0
  Ni  Ni49  1  0.58333333  0.64071500  0.07634063  1.0
  Ni  Ni50  1  0.58333333  0.97404833  0.07634063  1.0
  Ni  Ni51  1  0.91666667  0.30738167  0.07634063  1.0
  Ni  Ni52  1  0.91666667  0.64071500  0.07634063  1.0
  Ni  Ni53  1  0.91666667  0.97404833  0.07634063  1.0
  Ni  Ni54  1  0.08333333  0.11476333  0.02357250  1.0
  Ni  Ni55  1  0.08333333  0.44809667  0.02357250  1.0
  Ni  Ni56  1  0.08333333  0.78143000  0.02357250  1.0
  Ni  Ni57  1  0.41666667  0.11476333  0.02357250  1.0
  Ni  Ni58  1  0.41666667  0.44809667  0.02357250  1.0
  Ni  Ni59  1  0.41666667  0.78143000  0.02357250  1.0
  Ni  Ni60  1  0.75000000  0.11476333  0.02357250  1.0
  Ni  Ni61  1  0.75000000  0.44809667  0.02357250  1.0
  Ni  Ni62  1  0.75000000  0.78143000  0.02357250  1.0
  Ni  Ni63  1  0.08333333  0.28143000  0.08607250  1.0
  Ni  Ni64  1  0.08333333  0.61476333  0.08607250  1.0
  Ni  Ni65  1  0.08333333  0.94809667  0.08607250  1.0
  Ni  Ni66  1  0.41666667  0.28143000  0.08607250  1.0
  Ni  Ni67  1  0.41666667  0.61476333  0.08607250  1.0
  Ni  Ni68  1  0.41666667  0.94809667  0.08607250  1.0
  Ni  Ni69  1  0.75000000  0.28143000  0.08607250  1.0
  Ni  Ni70  1  0.75000000  0.61476333  0.08607250  1.0
  Ni  Ni71  1  0.75000000  0.94809667  0.08607250  1.0
  Ni  Ni72  1  0.08333333  0.02595167  0.04865938  1.0
  Ni  Ni73  1  0.08333333  0.35928500  0.04865938  1.0
  Ni  Ni74  1  0.08333333  0.69261833  0.04865938  1.0
  Ni  Ni75  1  0.41666667  0.02595167  0.04865938  1.0
  Ni  Ni76  1  0.41666667  0.35928500  0.04865938  1.0
  Ni  Ni77  1  0.41666667  0.69261833  0.04865938  1.0
  Ni  Ni78  1  0.75000000  0.02595167  0.04865938  1.0
  Ni  Ni79  1  0.75000000  0.35928500  0.04865938  1.0
  Ni  Ni80  1  0.75000000  0.69261833  0.04865938  1.0
  Ni  Ni81  1  0.08333333  0.19261833  0.11115938  1.0
  Ni  Ni82  1  0.08333333  0.52595167  0.11115938  1.0
  Ni  Ni83  1  0.08333333  0.85928500  0.11115938  1.0
  Ni  Ni84  1  0.41666667  0.19261833  0.11115938  1.0
  Ni  Ni85  1  0.41666667  0.52595167  0.11115938  1.0
  Ni  Ni86  1  0.41666667  0.85928500  0.11115938  1.0
  Ni  Ni87  1  0.75000000  0.19261833  0.11115938  1.0
  Ni  Ni88  1  0.75000000  0.52595167  0.11115938  1.0
  Ni  Ni89  1  0.75000000  0.85928500  0.11115938  1.0
  Ni  Ni90  1  0.25000000  0.05190333  0.03892750  1.0
  Ni  Ni91  1  0.25000000  0.38523667  0.03892750  1.0
  Ni  Ni92  1  0.25000000  0.71857000  0.03892750  1.0
  Ni  Ni93  1  0.58333333  0.05190333  0.03892750  1.0
  Ni  Ni94  1  0.58333333  0.38523667  0.03892750  1.0
  Ni  Ni95  1  0.58333333  0.71857000  0.03892750  1.0
  Ni  Ni96  1  0.91666667  0.05190333  0.03892750  1.0
  Ni  Ni97  1  0.91666667  0.38523667  0.03892750  1.0
  Ni  Ni98  1  0.91666667  0.71857000  0.03892750  1.0
  Ni  Ni99  1  0.25000000  0.21857000  0.10142750  1.0
  Ni  Ni100  1  0.25000000  0.55190333  0.10142750  1.0
  Ni  Ni101  1  0.25000000  0.88523667  0.10142750  1.0
  Ni  Ni102  1  0.58333333  0.21857000  0.10142750  1.0
  Ni  Ni103  1  0.58333333  0.55190333  0.10142750  1.0
  Ni  Ni104  1  0.58333333  0.88523667  0.10142750  1.0
  Ni  Ni105  1  0.91666667  0.21857000  0.10142750  1.0
  Ni  Ni106  1  0.91666667  0.55190333  0.10142750  1.0
  Ni  Ni107  1  0.91666667  0.88523667  0.10142750  1.0
  Ni  Ni108  1  0.25000000  0.14071500  0.07223187  1.0
  Ni  Ni109  1  0.25000000  0.47404833  0.07223188  1.0
  Ni  Ni110  1  0.25000000  0.80738167  0.07223187  1.0
  Ni  Ni111  1  0.58333333  0.14071500  0.07223187  1.0
  Ni  Ni112  1  0.58333333  0.47404833  0.07223188  1.0
  Ni  Ni113  1  0.58333333  0.80738167  0.07223187  1.0
  Ni  Ni114  1  0.91666667  0.14071500  0.07223187  1.0
  Ni  Ni115  1  0.91666667  0.47404833  0.07223188  1.0
  Ni  Ni116  1  0.91666667  0.80738167  0.07223187  1.0
  Ni  Ni117  1  0.25000000  0.30738167  0.00973188  1.0
  Ni  Ni118  1  0.25000000  0.64071500  0.00973188  1.0
  Ni  Ni119  1  0.25000000  0.97404833  0.00973188  1.0
  Ni  Ni120  1  0.58333333  0.30738167  0.00973188  1.0
  Ni  Ni121  1  0.58333333  0.64071500  0.00973188  1.0
  Ni  Ni122  1  0.58333333  0.97404833  0.00973188  1.0
  Ni  Ni123  1  0.91666667  0.30738167  0.00973188  1.0
  Ni  Ni124  1  0.91666667  0.64071500  0.00973188  1.0
  Ni  Ni125  1  0.91666667  0.97404833  0.00973188  1.0
  Ni  Ni126  1  0.08333333  0.02595167  0.11526813  1.0
  Ni  Ni127  1  0.08333333  0.35928500  0.11526813  1.0
  Ni  Ni128  1  0.08333333  0.69261833  0.11526813  1.0
  Ni  Ni129  1  0.41666667  0.02595167  0.11526812  1.0
  Ni  Ni130  1  0.41666667  0.35928500  0.11526813  1.0
  Ni  Ni131  1  0.41666667  0.69261833  0.11526813  1.0
  Ni  Ni132  1  0.75000000  0.02595167  0.11526813  1.0
  Ni  Ni133  1  0.75000000  0.35928500  0.11526813  1.0
  Ni  Ni134  1  0.75000000  0.69261833  0.11526813  1.0
  Ni  Ni135  1  0.08333333  0.19261833  0.05276813  1.0
  Ni  Ni136  1  0.08333333  0.52595167  0.05276813  1.0
  Ni  Ni137  1  0.08333333  0.85928500  0.05276813  1.0
  Ni  Ni138  1  0.41666667  0.19261833  0.05276813  1.0
  Ni  Ni139  1  0.41666667  0.52595167  0.05276813  1.0
  Ni  Ni140  1  0.41666667  0.85928500  0.05276813  1.0
  Ni  Ni141  1  0.75000000  0.19261833  0.05276813  1.0
  Ni  Ni142  1  0.75000000  0.52595167  0.05276813  1.0
  Ni  Ni143  1  0.75000000  0.85928500  0.05276813  1.0
  Zr  Zr144  1  0.25000000  0.05555556  0.22916667  1.0
  Zr  Zr145  1  0.25000000  0.38888889  0.22916667  1.0
  Zr  Zr146  1  0.25000000  0.72222222  0.22916667  1.0
  Zr  Zr147  1  0.58333333  0.05555556  0.22916667  1.0
  Zr  Zr148  1  0.58333333  0.38888889  0.22916667  1.0
  Zr  Zr149  1  0.58333333  0.72222222  0.22916667  1.0
  Zr  Zr150  1  0.91666667  0.05555556  0.22916667  1.0
  Zr  Zr151  1  0.91666667  0.38888889  0.22916667  1.0
  Zr  Zr152  1  0.91666667  0.72222222  0.22916667  1.0
  Zr  Zr153  1  0.25000000  0.22222222  0.16666667  1.0
  Zr  Zr154  1  0.25000000  0.55555556  0.16666667  1.0
  Zr  Zr155  1  0.25000000  0.88888889  0.16666667  1.0
  Zr  Zr156  1  0.58333333  0.22222222  0.16666667  1.0
  Zr  Zr157  1  0.58333333  0.55555556  0.16666667  1.0
  Zr  Zr158  1  0.58333333  0.88888889  0.16666667  1.0
  Zr  Zr159  1  0.91666667  0.22222222  0.16666667  1.0
  Zr  Zr160  1  0.91666667  0.55555556  0.16666667  1.0
  Zr  Zr161  1  0.91666667  0.88888889  0.16666667  1.0
  Zr  Zr162  1  0.08333333  0.11111111  0.20833333  1.0
  Zr  Zr163  1  0.08333333  0.44444444  0.20833333  1.0
  Zr  Zr164  1  0.08333333  0.77777778  0.20833333  1.0
  Zr  Zr165  1  0.41666667  0.11111111  0.20833333  1.0
  Zr  Zr166  1  0.41666667  0.44444444  0.20833333  1.0
  Zr  Zr167  1  0.41666667  0.77777778  0.20833333  1.0
  Zr  Zr168  1  0.75000000  0.11111111  0.20833333  1.0
  Zr  Zr169  1  0.75000000  0.44444444  0.20833333  1.0
  Zr  Zr170  1  0.75000000  0.77777778  0.20833333  1.0
  Zr  Zr171  1  0.08333333  0.27777778  0.14583333  1.0
  Zr  Zr172  1  0.08333333  0.61111111  0.14583333  1.0
  Zr  Zr173  1  0.08333333  0.94444444  0.14583333  1.0
  Zr  Zr174  1  0.41666667  0.27777778  0.14583333  1.0
  Zr  Zr175  1  0.41666667  0.61111111  0.14583333  1.0
  Zr  Zr176  1  0.41666667  0.94444444  0.14583333  1.0
  Zr  Zr177  1  0.75000000  0.27777778  0.14583333  1.0
  Zr  Zr178  1  0.75000000  0.61111111  0.14583333  1.0
  Zr  Zr179  1  0.75000000  0.94444444  0.14583333  1.0
  Ni  Ni180  1  0.25000000  0.14071500  0.13884062  1.0
  Ni  Ni181  1  0.25000000  0.47404833  0.13884062  1.0
  Ni  Ni182  1  0.25000000  0.80738167  0.13884063  1.0
  Ni  Ni183  1  0.58333333  0.14071500  0.13884062  1.0
  Ni  Ni184  1  0.58333333  0.47404833  0.13884062  1.0
  Ni  Ni185  1  0.58333333  0.80738167  0.13884063  1.0
  Ni  Ni186  1  0.91666667  0.14071500  0.13884062  1.0
  Ni  Ni187  1  0.91666667  0.47404833  0.13884062  1.0
  Ni  Ni188  1  0.91666667  0.80738167  0.13884063  1.0
  Ni  Ni189  1  0.25000000  0.30738167  0.20134062  1.0
  Ni  Ni190  1  0.25000000  0.64071500  0.20134063  1.0
  Ni  Ni191  1  0.25000000  0.97404833  0.20134063  1.0
  Ni  Ni192  1  0.58333333  0.30738167  0.20134063  1.0
  Ni  Ni193  1  0.58333333  0.64071500  0.20134063  1.0
  Ni  Ni194  1  0.58333333  0.97404833  0.20134063  1.0
  Ni  Ni195  1  0.91666667  0.30738167  0.20134062  1.0
  Ni  Ni196  1  0.91666667  0.64071500  0.20134063  1.0
  Ni  Ni197  1  0.91666667  0.97404833  0.20134063  1.0
  Ni  Ni198  1  0.08333333  0.11476333  0.14857250  1.0
  Ni  Ni199  1  0.08333333  0.44809667  0.14857250  1.0
  Ni  Ni200  1  0.08333333  0.78143000  0.14857250  1.0
  Ni  Ni201  1  0.41666667  0.11476333  0.14857250  1.0
  Ni  Ni202  1  0.41666667  0.44809667  0.14857250  1.0
  Ni  Ni203  1  0.41666667  0.78143000  0.14857250  1.0
  Ni  Ni204  1  0.75000000  0.11476333  0.14857250  1.0
  Ni  Ni205  1  0.75000000  0.44809667  0.14857250  1.0
  Ni  Ni206  1  0.75000000  0.78143000  0.14857250  1.0
  Ni  Ni207  1  0.08333333  0.28143000  0.21107250  1.0
  Ni  Ni208  1  0.08333333  0.61476333  0.21107250  1.0
  Ni  Ni209  1  0.08333333  0.94809667  0.21107250  1.0
  Ni  Ni210  1  0.41666667  0.28143000  0.21107250  1.0
  Ni  Ni211  1  0.41666667  0.61476333  0.21107250  1.0
  Ni  Ni212  1  0.41666667  0.94809667  0.21107250  1.0
  Ni  Ni213  1  0.75000000  0.28143000  0.21107250  1.0
  Ni  Ni214  1  0.75000000  0.61476333  0.21107250  1.0
  Ni  Ni215  1  0.75000000  0.94809667  0.21107250  1.0
  Ni  Ni216  1  0.08333333  0.02595167  0.17365938  1.0
  Ni  Ni217  1  0.08333333  0.35928500  0.17365938  1.0
  Ni  Ni218  1  0.08333333  0.69261833  0.17365938  1.0
  Ni  Ni219  1  0.41666667  0.02595167  0.17365938  1.0
  Ni  Ni220  1  0.41666667  0.35928500  0.17365938  1.0
  Ni  Ni221  1  0.41666667  0.69261833  0.17365938  1.0
  Ni  Ni222  1  0.75000000  0.02595167  0.17365938  1.0
  Ni  Ni223  1  0.75000000  0.35928500  0.17365938  1.0
  Ni  Ni224  1  0.75000000  0.69261833  0.17365938  1.0
  Ni  Ni225  1  0.08333333  0.19261833  0.23615938  1.0
  Ni  Ni226  1  0.08333333  0.52595167  0.23615938  1.0
  Ni  Ni227  1  0.08333333  0.85928500  0.23615938  1.0
  Ni  Ni228  1  0.41666667  0.19261833  0.23615938  1.0
  Ni  Ni229  1  0.41666667  0.52595167  0.23615938  1.0
  Ni  Ni230  1  0.41666667  0.85928500  0.23615938  1.0
  Ni  Ni231  1  0.75000000  0.19261833  0.23615938  1.0
  Ni  Ni232  1  0.75000000  0.52595167  0.23615938  1.0
  Ni  Ni233  1  0.75000000  0.85928500  0.23615938  1.0
  Ni  Ni234  1  0.25000000  0.05190333  0.16392750  1.0
  Ni  Ni235  1  0.25000000  0.38523667  0.16392750  1.0
  Ni  Ni236  1  0.25000000  0.71857000  0.16392750  1.0
  Ni  Ni237  1  0.58333333  0.05190333  0.16392750  1.0
  Ni  Ni238  1  0.58333333  0.38523667  0.16392750  1.0
  Ni  Ni239  1  0.58333333  0.71857000  0.16392750  1.0
  Ni  Ni240  1  0.91666667  0.05190333  0.16392750  1.0
  Ni  Ni241  1  0.91666667  0.38523667  0.16392750  1.0
  Ni  Ni242  1  0.91666667  0.71857000  0.16392750  1.0
  Ni  Ni243  1  0.25000000  0.21857000  0.22642750  1.0
  Ni  Ni244  1  0.25000000  0.55190333  0.22642750  1.0
  Ni  Ni245  1  0.25000000  0.88523667  0.22642750  1.0
  Ni  Ni246  1  0.58333333  0.21857000  0.22642750  1.0
  Ni  Ni247  1  0.58333333  0.55190333  0.22642750  1.0
  Ni  Ni248  1  0.58333333  0.88523667  0.22642750  1.0
  Ni  Ni249  1  0.91666667  0.21857000  0.22642750  1.0
  Ni  Ni250  1  0.91666667  0.55190333  0.22642750  1.0
  Ni  Ni251  1  0.91666667  0.88523667  0.22642750  1.0
  Ni  Ni252  1  0.25000000  0.14071500  0.19723187  1.0
  Ni  Ni253  1  0.25000000  0.47404833  0.19723188  1.0
  Ni  Ni254  1  0.25000000  0.80738167  0.19723188  1.0
  Ni  Ni255  1  0.58333333  0.14071500  0.19723187  1.0
  Ni  Ni256  1  0.58333333  0.47404833  0.19723188  1.0
  Ni  Ni257  1  0.58333333  0.80738167  0.19723188  1.0
  Ni  Ni258  1  0.91666667  0.14071500  0.19723187  1.0
  Ni  Ni259  1  0.91666667  0.47404833  0.19723188  1.0
  Ni  Ni260  1  0.91666667  0.80738167  0.19723188  1.0
  Ni  Ni261  1  0.25000000  0.30738167  0.13473188  1.0
  Ni  Ni262  1  0.25000000  0.64071500  0.13473188  1.0
  Ni  Ni263  1  0.25000000  0.97404833  0.13473188  1.0
  Ni  Ni264  1  0.58333333  0.30738167  0.13473188  1.0
  Ni  Ni265  1  0.58333333  0.64071500  0.13473188  1.0
  Ni  Ni266  1  0.58333333  0.97404833  0.13473188  1.0
  Ni  Ni267  1  0.91666667  0.30738167  0.13473188  1.0
  Ni  Ni268  1  0.91666667  0.64071500  0.13473188  1.0
  Ni  Ni269  1  0.91666667  0.97404833  0.13473188  1.0
  Ni  Ni270  1  0.08333333  0.02595167  0.24026813  1.0
  Ni  Ni271  1  0.08333333  0.35928500  0.24026813  1.0
  Ni  Ni272  1  0.08333333  0.69261833  0.24026813  1.0
  Ni  Ni273  1  0.41666667  0.02595167  0.24026813  1.0
  Ni  Ni274  1  0.41666667  0.35928500  0.24026813  1.0
  Ni  Ni275  1  0.41666667  0.69261833  0.24026813  1.0
  Ni  Ni276  1  0.75000000  0.02595167  0.24026812  1.0
  Ni  Ni277  1  0.75000000  0.35928500  0.24026813  1.0
  Ni  Ni278  1  0.75000000  0.69261833  0.24026813  1.0
  Ni  Ni279  1  0.08333333  0.19261833  0.17776813  1.0
  Ni  Ni280  1  0.08333333  0.52595167  0.17776813  1.0
  Ni  Ni281  1  0.08333333  0.85928500  0.17776813  1.0
  Ni  Ni282  1  0.41666667  0.19261833  0.17776813  1.0
  Ni  Ni283  1  0.41666667  0.52595167  0.17776813  1.0
  Ni  Ni284  1  0.41666667  0.85928500  0.17776813  1.0
  Ni  Ni285  1  0.75000000  0.19261833  0.17776812  1.0
  Ni  Ni286  1  0.75000000  0.52595167  0.17776813  1.0
  Ni  Ni287  1  0.75000000  0.85928500  0.17776813  1.0
  Zr  Zr288  1  0.25000000  0.05555556  0.35416667  1.0
  Zr  Zr289  1  0.25000000  0.38888889  0.35416667  1.0
  Zr  Zr290  1  0.25000000  0.72222222  0.35416667  1.0
  Zr  Zr291  1  0.58333333  0.05555556  0.35416667  1.0
  Zr  Zr292  1  0.58333333  0.38888889  0.35416667  1.0
  Zr  Zr293  1  0.58333333  0.72222222  0.35416667  1.0
  Zr  Zr294  1  0.91666667  0.05555556  0.35416667  1.0
  Zr  Zr295  1  0.91666667  0.38888889  0.35416667  1.0
  Zr  Zr296  1  0.91666667  0.72222222  0.35416667  1.0
  Zr  Zr297  1  0.25000000  0.22222222  0.29166667  1.0
  Zr  Zr298  1  0.25000000  0.55555556  0.29166667  1.0
  Zr  Zr299  1  0.25000000  0.88888889  0.29166667  1.0
  Zr  Zr300  1  0.58333333  0.22222222  0.29166667  1.0
  Zr  Zr301  1  0.58333333  0.55555556  0.29166667  1.0
  Zr  Zr302  1  0.58333333  0.88888889  0.29166667  1.0
  Zr  Zr303  1  0.91666667  0.22222222  0.29166667  1.0
  Zr  Zr304  1  0.91666667  0.55555556  0.29166667  1.0
  Zr  Zr305  1  0.91666667  0.88888889  0.29166667  1.0
  Zr  Zr306  1  0.08333333  0.11111111  0.33333333  1.0
  Zr  Zr307  1  0.08333333  0.44444444  0.33333333  1.0
  Zr  Zr308  1  0.08333333  0.77777778  0.33333333  1.0
  Zr  Zr309  1  0.41666667  0.11111111  0.33333333  1.0
  Zr  Zr310  1  0.41666667  0.44444444  0.33333333  1.0
  Zr  Zr311  1  0.41666667  0.77777778  0.33333333  1.0
  Zr  Zr312  1  0.75000000  0.11111111  0.33333333  1.0
  Zr  Zr313  1  0.75000000  0.44444444  0.33333333  1.0
  Zr  Zr314  1  0.75000000  0.77777778  0.33333333  1.0
  Zr  Zr315  1  0.08333333  0.27777778  0.27083333  1.0
  Zr  Zr316  1  0.08333333  0.61111111  0.27083333  1.0
  Zr  Zr317  1  0.08333333  0.94444444  0.27083333  1.0
  Zr  Zr318  1  0.41666667  0.27777778  0.27083333  1.0
  Zr  Zr319  1  0.41666667  0.61111111  0.27083333  1.0
  Zr  Zr320  1  0.41666667  0.94444444  0.27083333  1.0
  Zr  Zr321  1  0.75000000  0.27777778  0.27083333  1.0
  Zr  Zr322  1  0.75000000  0.61111111  0.27083333  1.0
  Zr  Zr323  1  0.75000000  0.94444444  0.27083333  1.0
  Ni  Ni324  1  0.25000000  0.14071500  0.26384062  1.0
  Ni  Ni325  1  0.25000000  0.47404833  0.26384063  1.0
  Ni  Ni326  1  0.25000000  0.80738167  0.26384063  1.0
  Ni  Ni327  1  0.58333333  0.14071500  0.26384062  1.0
  Ni  Ni328  1  0.58333333  0.47404833  0.26384063  1.0
  Ni  Ni329  1  0.58333333  0.80738167  0.26384063  1.0
  Ni  Ni330  1  0.91666667  0.14071500  0.26384062  1.0
  Ni  Ni331  1  0.91666667  0.47404833  0.26384063  1.0
  Ni  Ni332  1  0.91666667  0.80738167  0.26384063  1.0
  Ni  Ni333  1  0.25000000  0.30738167  0.32634063  1.0
  Ni  Ni334  1  0.25000000  0.64071500  0.32634063  1.0
  Ni  Ni335  1  0.25000000  0.97404833  0.32634063  1.0
  Ni  Ni336  1  0.58333333  0.30738167  0.32634063  1.0
  Ni  Ni337  1  0.58333333  0.64071500  0.32634063  1.0
  Ni  Ni338  1  0.58333333  0.97404833  0.32634063  1.0
  Ni  Ni339  1  0.91666667  0.30738167  0.32634063  1.0
  Ni  Ni340  1  0.91666667  0.64071500  0.32634063  1.0
  Ni  Ni341  1  0.91666667  0.97404833  0.32634063  1.0
  Ni  Ni342  1  0.08333333  0.11476333  0.27357250  1.0
  Ni  Ni343  1  0.08333333  0.44809667  0.27357250  1.0
  Ni  Ni344  1  0.08333333  0.78143000  0.27357250  1.0
  Ni  Ni345  1  0.41666667  0.11476333  0.27357250  1.0
  Ni  Ni346  1  0.41666667  0.44809667  0.27357250  1.0
  Ni  Ni347  1  0.41666667  0.78143000  0.27357250  1.0
  Ni  Ni348  1  0.75000000  0.11476333  0.27357250  1.0
  Ni  Ni349  1  0.75000000  0.44809667  0.27357250  1.0
  Ni  Ni350  1  0.75000000  0.78143000  0.27357250  1.0
  Ni  Ni351  1  0.08333333  0.28143000  0.33607250  1.0
  Ni  Ni352  1  0.08333333  0.61476333  0.33607250  1.0
  Ni  Ni353  1  0.08333333  0.94809667  0.33607250  1.0
  Ni  Ni354  1  0.41666667  0.28143000  0.33607250  1.0
  Ni  Ni355  1  0.41666667  0.61476333  0.33607250  1.0
  Ni  Ni356  1  0.41666667  0.94809667  0.33607250  1.0
  Ni  Ni357  1  0.75000000  0.28143000  0.33607250  1.0
  Ni  Ni358  1  0.75000000  0.61476333  0.33607250  1.0
  Ni  Ni359  1  0.75000000  0.94809667  0.33607250  1.0
  Ni  Ni360  1  0.08333333  0.02595167  0.29865938  1.0
  Ni  Ni361  1  0.08333333  0.35928500  0.29865938  1.0
  Ni  Ni362  1  0.08333333  0.69261833  0.29865938  1.0
  Ni  Ni363  1  0.41666667  0.02595167  0.29865938  1.0
  Ni  Ni364  1  0.41666667  0.35928500  0.29865938  1.0
  Ni  Ni365  1  0.41666667  0.69261833  0.29865938  1.0
  Ni  Ni366  1  0.75000000  0.02595167  0.29865938  1.0
  Ni  Ni367  1  0.75000000  0.35928500  0.29865938  1.0
  Ni  Ni368  1  0.75000000  0.69261833  0.29865938  1.0
  Ni  Ni369  1  0.08333333  0.19261833  0.36115938  1.0
  Ni  Ni370  1  0.08333333  0.52595167  0.36115938  1.0
  Ni  Ni371  1  0.08333333  0.85928500  0.36115938  1.0
  Ni  Ni372  1  0.41666667  0.19261833  0.36115938  1.0
  Ni  Ni373  1  0.41666667  0.52595167  0.36115938  1.0
  Ni  Ni374  1  0.41666667  0.85928500  0.36115938  1.0
  Ni  Ni375  1  0.75000000  0.19261833  0.36115938  1.0
  Ni  Ni376  1  0.75000000  0.52595167  0.36115938  1.0
  Ni  Ni377  1  0.75000000  0.85928500  0.36115938  1.0
  Ni  Ni378  1  0.25000000  0.05190333  0.28892750  1.0
  Ni  Ni379  1  0.25000000  0.38523667  0.28892750  1.0
  Ni  Ni380  1  0.25000000  0.71857000  0.28892750  1.0
  Ni  Ni381  1  0.58333333  0.05190333  0.28892750  1.0
  Ni  Ni382  1  0.58333333  0.38523667  0.28892750  1.0
  Ni  Ni383  1  0.58333333  0.71857000  0.28892750  1.0
  Ni  Ni384  1  0.91666667  0.05190333  0.28892750  1.0
  Ni  Ni385  1  0.91666667  0.38523667  0.28892750  1.0
  Ni  Ni386  1  0.91666667  0.71857000  0.28892750  1.0
  Ni  Ni387  1  0.25000000  0.21857000  0.35142750  1.0
  Ni  Ni388  1  0.25000000  0.55190333  0.35142750  1.0
  Ni  Ni389  1  0.25000000  0.88523667  0.35142750  1.0
  Ni  Ni390  1  0.58333333  0.21857000  0.35142750  1.0
  Ni  Ni391  1  0.58333333  0.55190333  0.35142750  1.0
  Ni  Ni392  1  0.58333333  0.88523667  0.35142750  1.0
  Ni  Ni393  1  0.91666667  0.21857000  0.35142750  1.0
  Ni  Ni394  1  0.91666667  0.55190333  0.35142750  1.0
  Ni  Ni395  1  0.91666667  0.88523667  0.35142750  1.0
  Ni  Ni396  1  0.25000000  0.14071500  0.32223187  1.0
  Ni  Ni397  1  0.25000000  0.47404833  0.32223187  1.0
  Ni  Ni398  1  0.25000000  0.80738167  0.32223188  1.0
  Ni  Ni399  1  0.58333333  0.14071500  0.32223187  1.0
  Ni  Ni400  1  0.58333333  0.47404833  0.32223187  1.0
  Ni  Ni401  1  0.58333333  0.80738167  0.32223188  1.0
  Ni  Ni402  1  0.91666667  0.14071500  0.32223187  1.0
  Ni  Ni403  1  0.91666667  0.47404833  0.32223187  1.0
  Ni  Ni404  1  0.91666667  0.80738167  0.32223188  1.0
  Ni  Ni405  1  0.25000000  0.30738167  0.25973188  1.0
  Ni  Ni406  1  0.25000000  0.64071500  0.25973188  1.0
  Ni  Ni407  1  0.25000000  0.97404833  0.25973188  1.0
  Ni  Ni408  1  0.58333333  0.30738167  0.25973188  1.0
  Ni  Ni409  1  0.58333333  0.64071500  0.25973188  1.0
  Ni  Ni410  1  0.58333333  0.97404833  0.25973188  1.0
  Ni  Ni411  1  0.91666667  0.30738167  0.25973188  1.0
  Ni  Ni412  1  0.91666667  0.64071500  0.25973188  1.0
  Ni  Ni413  1  0.91666667  0.97404833  0.25973188  1.0
  Ni  Ni414  1  0.08333333  0.02595167  0.36526813  1.0
  Ni  Ni415  1  0.08333333  0.35928500  0.36526813  1.0
  Ni  Ni416  1  0.08333333  0.69261833  0.36526813  1.0
  Ni  Ni417  1  0.41666667  0.02595167  0.36526813  1.0
  Ni  Ni418  1  0.41666667  0.35928500  0.36526813  1.0
  Ni  Ni419  1  0.41666667  0.69261833  0.36526813  1.0
  Ni  Ni420  1  0.75000000  0.02595167  0.36526813  1.0
  Ni  Ni421  1  0.75000000  0.35928500  0.36526813  1.0
  Ni  Ni422  1  0.75000000  0.69261833  0.36526813  1.0
  Ni  Ni423  1  0.08333333  0.19261833  0.30276813  1.0
  Ni  Ni424  1  0.08333333  0.52595167  0.30276813  1.0
  Ni  Ni425  1  0.08333333  0.85928500  0.30276813  1.0
  Ni  Ni426  1  0.41666667  0.19261833  0.30276813  1.0
  Ni  Ni427  1  0.41666667  0.52595167  0.30276813  1.0
  Ni  Ni428  1  0.41666667  0.85928500  0.30276813  1.0
  Ni  Ni429  1  0.75000000  0.19261833  0.30276813  1.0
  Ni  Ni430  1  0.75000000  0.52595167  0.30276813  1.0
  Ni  Ni431  1  0.75000000  0.85928500  0.30276813  1.0
