# generated using pymatgen
data_ZrNi
_symmetry_space_group_name_H-M   'P 1'
_cell_length_a   15.76624269
_cell_length_b   19.95982499
_cell_length_c   28.65124533
_cell_angle_alpha   83.38023425
_cell_angle_beta   88.26361206
_cell_angle_gamma   71.26966027
_symmetry_Int_Tables_number   1
_chemical_formula_structural   ZrNi
_chemical_formula_sum   'Zr108 Ni108'
_cell_volume   8481.65786346
_cell_formula_units_Z   108
loop_
 _symmetry_equiv_pos_site_id
 _symmetry_equiv_pos_as_xyz
  1  'x, y, z'
loop_
 _atom_site_type_symbol
 _atom_site_label
 _atom_site_symmetry_multiplicity
 _atom_site_fract_x
 _atom_site_fract_y
 _atom_site_fract_z
 _atom_site_occupancy
  Ni  Ni0  1  0.13879100  0.17681557  0.06560657  1.0
  Ni  Ni1  1  0.13879100  0.51014890  0.06560657  1.0
  Ni  Ni2  1  0.13879100  0.84348224  0.06560657  1.0
  Ni  Ni3  1  0.47212433  0.17681557  0.06560657  1.0
  Ni  Ni4  1  0.47212433  0.51014890  0.06560657  1.0
  Ni  Ni5  1  0.47212433  0.84348224  0.06560657  1.0
  Ni  Ni6  1  0.80545767  0.17681557  0.06560657  1.0
  Ni  Ni7  1  0.80545767  0.51014890  0.06560657  1.0
  Ni  Ni8  1  0.80545767  0.84348224  0.06560657  1.0
  Ni  Ni9  1  0.30545767  0.08157748  0.13703514  1.0
  Ni  Ni10  1  0.30545767  0.41491081  0.13703514  1.0
  Ni  Ni11  1  0.30545767  0.74824414  0.13703514  1.0
  Ni  Ni12  1  0.63879100  0.08157748  0.13703514  1.0
  Ni  Ni13  1  0.63879100  0.41491081  0.13703514  1.0
  Ni  Ni14  1  0.63879100  0.74824414  0.13703514  1.0
  Ni  Ni15  1  0.97212433  0.08157748  0.13703514  1.0
  Ni  Ni16  1  0.97212433  0.41491081  0.13703514  1.0
  Ni  Ni17  1  0.97212433  0.74824414  0.13703514  1.0
  Ni  Ni18  1  0.19454233  0.28747919  0.06535486  1.0
  Ni  Ni19  1  0.19454233  0.62081252  0.06535486  1.0
  Ni  Ni20  1  0.19454233  0.95414586  0.06535486  1.0
  Ni  Ni21  1  0.52787567  0.28747919  0.06535486  1.0
  Ni  Ni22  1  0.52787567  0.62081252  0.06535486  1.0
  Ni  Ni23  1  0.52787567  0.95414586  0.06535486  1.0
  Ni  Ni24  1  0.86120900  0.28747919  0.06535486  1.0
  Ni  Ni25  1  0.86120900  0.62081252  0.06535486  1.0
  Ni  Ni26  1  0.86120900  0.95414586  0.06535486  1.0
  Ni  Ni27  1  0.02787567  0.19224110  0.13678343  1.0
  Ni  Ni28  1  0.02787567  0.52557443  0.13678343  1.0
  Ni  Ni29  1  0.02787567  0.85890776  0.13678343  1.0
  Ni  Ni30  1  0.36120900  0.19224110  0.13678343  1.0
  Ni  Ni31  1  0.36120900  0.52557443  0.13678343  1.0
  Ni  Ni32  1  0.36120900  0.85890776  0.13678343  1.0
  Ni  Ni33  1  0.69454233  0.19224110  0.13678343  1.0
  Ni  Ni34  1  0.69454233  0.52557443  0.13678343  1.0
  Ni  Ni35  1  0.69454233  0.85890776  0.13678343  1.0
  Ni  Ni36  1  0.13879100  0.31967271  0.20846371  1.0
  Ni  Ni37  1  0.13879100  0.65300605  0.20846371  1.0
  Ni  Ni38  1  0.13879100  0.98633938  0.20846371  1.0
  Ni  Ni39  1  0.47212433  0.31967271  0.20846371  1.0
  Ni  Ni40  1  0.47212433  0.65300605  0.20846371  1.0
  Ni  Ni41  1  0.47212433  0.98633938  0.20846371  1.0
  Ni  Ni42  1  0.80545767  0.31967271  0.20846371  1.0
  Ni  Ni43  1  0.80545767  0.65300605  0.20846371  1.0
  Ni  Ni44  1  0.80545767  0.98633938  0.20846371  1.0
  Ni  Ni45  1  0.30545767  0.22443462  0.27989229  1.0
  Ni  Ni46  1  0.30545767  0.55776795  0.27989229  1.0
  Ni  Ni47  1  0.30545767  0.89110129  0.27989229  1.0
  Ni  Ni48  1  0.63879100  0.22443462  0.27989229  1.0
  Ni  Ni49  1  0.63879100  0.55776795  0.27989229  1.0
  Ni  Ni50  1  0.63879100  0.89110129  0.27989229  1.0
  Ni  Ni51  1  0.97212433  0.22443462  0.27989229  1.0
  Ni  Ni52  1  0.97212433  0.55776795  0.27989229  1.0
  Ni  Ni53  1  0.97212433  0.89110129  0.27989229  1.0
  Ni  Ni54  1  0.19454233  0.09700300  0.20821200  1.0
  Ni  Ni55  1  0.19454233  0.43033633  0.20821200  1.0
  Ni  Ni56  1  0.19454233  0.76366967  0.20821200  1.0
  Ni  Ni57  1  0.52787567  0.09700300  0.20821200  1.0
  Ni  Ni58  1  0.52787567  0.43033633  0.20821200  1.0
  Ni  Ni59  1  0.52787567  0.76366967  0.20821200  1.0
  Ni  Ni60  1  0.86120900  0.09700300  0.20821200  1.0
  Ni  Ni61  1  0.86120900  0.43033633  0.20821200  1.0
  Ni  Ni62  1  0.86120900  0.76366967  0.20821200  1.0
  Ni  Ni63  1  0.02787567  0.00176490  0.27964057  1.0
  Ni  Ni64  1  0.02787567  0.33509824  0.27964057  1.0
  Ni  Ni65  1  0.02787567  0.66843157  0.27964057  1.0
  Ni  Ni66  1  0.36120900  0.00176490  0.27964057  1.0
  Ni  Ni67  1  0.36120900  0.33509824  0.27964057  1.0
  Ni  Ni68  1  0.36120900  0.66843157  0.27964057  1.0
  Ni  Ni69  1  0.69454233  0.00176490  0.27964057  1.0
  Ni  Ni70  1  0.69454233  0.33509824  0.27964057  1.0
  Ni  Ni71  1  0.69454233  0.66843157  0.27964057  1.0
  Ni  Ni72  1  0.13879100  0.12919652  0.35132086  1.0
  Ni  Ni73  1  0.13879100  0.46252986  0.35132086  1.0
  Ni  Ni74  1  0.13879100  0.79586319  0.35132086  1.0
  Ni  Ni75  1  0.47212433  0.12919652  0.35132086  1.0
  Ni  Ni76  1  0.47212433  0.46252986  0.35132086  1.0
  Ni  Ni77  1  0.47212433  0.79586319  0.35132086  1.0
  Ni  Ni78  1  0.80545767  0.12919652  0.35132086  1.0
  Ni  Ni79  1  0.80545767  0.46252986  0.35132086  1.0
  Ni  Ni80  1  0.80545767  0.79586319  0.35132086  1.0
  Ni  Ni81  1  0.30545767  0.03395843  0.42274943  1.0
  Ni  Ni82  1  0.30545767  0.36729176  0.42274943  1.0
  Ni  Ni83  1  0.30545767  0.70062510  0.42274943  1.0
  Ni  Ni84  1  0.63879100  0.03395843  0.42274943  1.0
  Ni  Ni85  1  0.63879100  0.36729176  0.42274943  1.0
  Ni  Ni86  1  0.63879100  0.70062510  0.42274943  1.0
  Ni  Ni87  1  0.97212433  0.03395843  0.42274943  1.0
  Ni  Ni88  1  0.97212433  0.36729176  0.42274943  1.0
  Ni  Ni89  1  0.97212433  0.70062510  0.42274943  1.0
  Ni  Ni90  1  0.19454233  0.23986014  0.35106914  1.0
  Ni  Ni91  1  0.19454233  0.57319348  0.35106914  1.0
  Ni  Ni92  1  0.19454233  0.90652681  0.35106914  1.0
  Ni  Ni93  1  0.52787567  0.23986014  0.35106914  1.0
  Ni  Ni94  1  0.52787567  0.57319348  0.35106914  1.0
  Ni  Ni95  1  0.52787567  0.90652681  0.35106914  1.0
  Ni  Ni96  1  0.86120900  0.23986014  0.35106914  1.0
  Ni  Ni97  1  0.86120900  0.57319348  0.35106914  1.0
  Ni  Ni98  1  0.86120900  0.90652681  0.35106914  1.0
  Ni  Ni99  1  0.02787567  0.14462205  0.42249771  1.0
  Ni  Ni100  1  0.02787567  0.47795538  0.42249771  1.0
  Ni  Ni101  1  0.02787567  0.81128871  0.42249771  1.0
  Ni  Ni102  1  0.36120900  0.14462205  0.42249771  1.0
  Ni  Ni103  1  0.36120900  0.47795538  0.42249771  1.0
  Ni  Ni104  1  0.36120900  0.81128871  0.42249771  1.0
  Ni  Ni105  1  0.69454233  0.14462205  0.42249771  1.0
  Ni  Ni106  1  0.69454233  0.47795538  0.42249771  1.0
  Ni  Ni107  1  0.69454233  0.81128871  0.42249771  1.0
  Zr  Zr108  1  0.18509433  0.07097938  0.00607371  1.0
  Zr  Zr109  1  0.18509433  0.40431271  0.00607371  1.0
  Zr  Zr110  1  0.18509433  0.73764605  0.00607371  1.0
  Zr  Zr111  1  0.51842767  0.07097938  0.00607371  1.0
  Zr  Zr112  1  0.51842767  0.40431271  0.00607371  1.0
  Zr  Zr113  1  0.51842767  0.73764605  0.00607371  1.0
  Zr  Zr114  1  0.85176100  0.07097938  0.00607371  1.0
  Zr  Zr115  1  0.85176100  0.40431271  0.00607371  1.0
  Zr  Zr116  1  0.85176100  0.73764605  0.00607371  1.0
  Zr  Zr117  1  0.01842767  0.30907462  0.07750229  1.0
  Zr  Zr118  1  0.01842767  0.64240795  0.07750229  1.0
  Zr  Zr119  1  0.01842767  0.97574129  0.07750229  1.0
  Zr  Zr120  1  0.35176100  0.30907462  0.07750229  1.0
  Zr  Zr121  1  0.35176100  0.64240795  0.07750229  1.0
  Zr  Zr122  1  0.35176100  0.97574129  0.07750229  1.0
  Zr  Zr123  1  0.68509433  0.30907462  0.07750229  1.0
  Zr  Zr124  1  0.68509433  0.64240795  0.07750229  1.0
  Zr  Zr125  1  0.68509433  0.97574129  0.07750229  1.0
  Zr  Zr126  1  0.14823900  0.05998205  0.12488771  1.0
  Zr  Zr127  1  0.14823900  0.39331538  0.12488771  1.0
  Zr  Zr128  1  0.14823900  0.72664871  0.12488771  1.0
  Zr  Zr129  1  0.48157233  0.05998205  0.12488771  1.0
  Zr  Zr130  1  0.48157233  0.39331538  0.12488771  1.0
  Zr  Zr131  1  0.48157233  0.72664871  0.12488771  1.0
  Zr  Zr132  1  0.81490567  0.05998205  0.12488771  1.0
  Zr  Zr133  1  0.81490567  0.39331538  0.12488771  1.0
  Zr  Zr134  1  0.81490567  0.72664871  0.12488771  1.0
  Zr  Zr135  1  0.31490567  0.15522014  0.05345914  1.0
  Zr  Zr136  1  0.31490567  0.48855348  0.05345914  1.0
  Zr  Zr137  1  0.31490567  0.82188681  0.05345914  1.0
  Zr  Zr138  1  0.64823900  0.15522014  0.05345914  1.0
  Zr  Zr139  1  0.64823900  0.48855348  0.05345914  1.0
  Zr  Zr140  1  0.64823900  0.82188681  0.05345914  1.0
  Zr  Zr141  1  0.98157233  0.15522014  0.05345914  1.0
  Zr  Zr142  1  0.98157233  0.48855348  0.05345914  1.0
  Zr  Zr143  1  0.98157233  0.82188681  0.05345914  1.0
  Zr  Zr144  1  0.18509433  0.21383652  0.14893086  1.0
  Zr  Zr145  1  0.18509433  0.54716986  0.14893086  1.0
  Zr  Zr146  1  0.18509433  0.88050319  0.14893086  1.0
  Zr  Zr147  1  0.51842767  0.21383652  0.14893086  1.0
  Zr  Zr148  1  0.51842767  0.54716986  0.14893086  1.0
  Zr  Zr149  1  0.51842767  0.88050319  0.14893086  1.0
  Zr  Zr150  1  0.85176100  0.21383652  0.14893086  1.0
  Zr  Zr151  1  0.85176100  0.54716986  0.14893086  1.0
  Zr  Zr152  1  0.85176100  0.88050319  0.14893086  1.0
  Zr  Zr153  1  0.01842767  0.11859843  0.22035943  1.0
  Zr  Zr154  1  0.01842767  0.45193176  0.22035943  1.0
  Zr  Zr155  1  0.01842767  0.78526510  0.22035943  1.0
  Zr  Zr156  1  0.35176100  0.11859843  0.22035943  1.0
  Zr  Zr157  1  0.35176100  0.45193176  0.22035943  1.0
  Zr  Zr158  1  0.35176100  0.78526510  0.22035943  1.0
  Zr  Zr159  1  0.68509433  0.11859843  0.22035943  1.0
  Zr  Zr160  1  0.68509433  0.45193176  0.22035943  1.0
  Zr  Zr161  1  0.68509433  0.78526510  0.22035943  1.0
  Zr  Zr162  1  0.14823900  0.20283919  0.26774486  1.0
  Zr  Zr163  1  0.14823900  0.53617252  0.26774486  1.0
  Zr  Zr164  1  0.14823900  0.86950586  0.26774486  1.0
  Zr  Zr165  1  0.48157233  0.20283919  0.26774486  1.0
  Zr  Zr166  1  0.48157233  0.53617252  0.26774486  1.0
  Zr  Zr167  1  0.48157233  0.86950586  0.26774486  1.0
  Zr  Zr168  1  0.81490567  0.20283919  0.26774486  1.0
  Zr  Zr169  1  0.81490567  0.53617252  0.26774486  1.0
  Zr  Zr170  1  0.81490567  0.86950586  0.26774486  1.0
  Zr  Zr171  1  0.31490567  0.29807729  0.19631629  1.0
  Zr  Zr172  1  0.31490567  0.63141062  0.19631629  1.0
  Zr  Zr173  1  0.31490567  0.96474395  0.19631629  1.0
  Zr  Zr174  1  0.64823900  0.29807729  0.19631629  1.0
  Zr  Zr175  1  0.64823900  0.63141062  0.19631629  1.0
  Zr  Zr176  1  0.64823900  0.96474395  0.19631629  1.0
  Zr  Zr177  1  0.98157233  0.29807729  0.19631629  1.0
  Zr  Zr178  1  0.98157233  0.63141062  0.19631629  1.0
  Zr  Zr179  1  0.98157233  0.96474395  0.19631629  1.0
  Zr  Zr180  1  0.18509433  0.02336033  0.29178800  1.0
  Zr  Zr181  1  0.18509433  0.35669367  0.29178800  1.0
  Zr  Zr182  1  0.18509433  0.69002700  0.29178800  1.0
  Zr  Zr183  1  0.51842767  0.02336033  0.29178800  1.0
  Zr  Zr184  1  0.51842767  0.35669367  0.29178800  1.0
  Zr  Zr185  1  0.51842767  0.69002700  0.29178800  1.0
  Zr  Zr186  1  0.85176100  0.02336033  0.29178800  1.0
  Zr  Zr187  1  0.85176100  0.35669367  0.29178800  1.0
  Zr  Zr188  1  0.85176100  0.69002700  0.29178800  1.0
  Zr  Zr189  1  0.01842767  0.26145557  0.36321657  1.0
  Zr  Zr190  1  0.01842767  0.59478890  0.36321657  1.0
  Zr  Zr191  1  0.01842767  0.92812224  0.36321657  1.0
  Zr  Zr192  1  0.35176100  0.26145557  0.36321657  1.0
  Zr  Zr193  1  0.35176100  0.59478890  0.36321657  1.0
  Zr  Zr194  1  0.35176100  0.92812224  0.36321657  1.0
  Zr  Zr195  1  0.68509433  0.26145557  0.36321657  1.0
  Zr  Zr196  1  0.68509433  0.59478890  0.36321657  1.0
  Zr  Zr197  1  0.68509433  0.92812224  0.36321657  1.0
  Zr  Zr198  1  0.14823900  0.01236300  0.41060200  1.0
  Zr  Zr199  1  0.14823900  0.34569633  0.41060200  1.0
  Zr  Zr200  1  0.14823900  0.67902967  0.41060200  1.0
  Zr  Zr201  1  0.48157233  0.01236300  0.41060200  1.0
  Zr  Zr202  1  0.48157233  0.34569633  0.41060200  1.0
  Zr  Zr203  1  0.48157233  0.67902967  0.41060200  1.0
  Zr  Zr204  1  0.81490567  0.01236300  0.41060200  1.0
  Zr  Zr205  1  0.81490567  0.34569633  0.41060200  1.0
  Zr  Zr206  1  0.81490567  0.67902967  0.41060200  1.0
  Zr  Zr207  1  0.31490567  0.10760110  0.33917343  1.0
  Zr  Zr208  1  0.31490567  0.44093443  0.33917343  1.0
  Zr  Zr209  1  0.31490567  0.77426776  0.33917343  1.0
  Zr  Zr210  1  0.64823900  0.10760110  0.33917343  1.0
  Zr  Zr211  1  0.64823900  0.44093443  0.33917343  1.0
  Zr  Zr212  1  0.64823900  0.77426776  0.33917343  1.0
  Zr  Zr213  1  0.98157233  0.10760110  0.33917343  1.0
  Zr  Zr214  1  0.98157233  0.44093443  0.33917343  1.0
  Zr  Zr215  1  0.98157233  0.77426776  0.33917343  1.0
