# generated using pymatgen
data_ZrNi5
_symmetry_space_group_name_H-M   'P 1'
_cell_length_a   14.19967716
_cell_length_b   14.19967716
_cell_length_c   37.86580576
_cell_angle_alpha   120.00000000
_cell_angle_beta   60.00000000
_cell_angle_gamma   90.00000000
_symmetry_Int_Tables_number   1
_chemical_formula_structural   ZrNi5
_chemical_formula_sum   'Zr27 Ni135'
_cell_volume   5398.69939165
_cell_formula_units_Z   27
loop_
 _symmetry_equiv_pos_site_id
 _symmetry_equiv_pos_as_xyz
  1  'x, y, z'
loop_
 _atom_site_type_symbol
 _atom_site_label
 _atom_site_symmetry_multiplicity
 _atom_site_fract_x
 _atom_site_fract_y
 _atom_site_fract_z
 _atom_site_occupancy
  Zr  Zr0  1  0.00000000  0.00000000  0.10950346  1.0
  Zr  Zr1  1  0.00000000  0.33333333  0.10950346  1.0
  Zr  Zr2  1  0.00000000  0.66666667  0.10950346  1.0
  Zr  Zr3  1  0.33333333  0.00000000  0.10950346  1.0
  Zr  Zr4  1  0.33333333  0.33333333  0.10950346  1.0
  Zr  Zr5  1  0.33333333  0.66666667  0.10950346  1.0
  Zr  Zr6  1  0.66666667  0.00000000  0.10950346  1.0
  Zr  Zr7  1  0.66666667  0.33333333  0.10950346  1.0
  Zr  Zr8  1  0.66666667  0.66666667  0.10950346  1.0
  Ni  Ni9  1  0.25000000  0.25000000  0.04700346  1.0
  Ni  Ni10  1  0.25000000  0.58333333  0.04700346  1.0
  Ni  Ni11  1  0.25000000  0.91666667  0.04700346  1.0
  Ni  Ni12  1  0.58333333  0.25000000  0.04700346  1.0
  Ni  Ni13  1  0.58333333  0.58333333  0.04700346  1.0
  Ni  Ni14  1  0.58333333  0.91666667  0.04700346  1.0
  Ni  Ni15  1  0.91666667  0.25000000  0.04700346  1.0
  Ni  Ni16  1  0.91666667  0.58333333  0.04700346  1.0
  Ni  Ni17  1  0.91666667  0.91666667  0.04700346  1.0
  Ni  Ni18  1  0.12534256  0.12534256  0.01549654  1.0
  Ni  Ni19  1  0.12534256  0.45867589  0.01549654  1.0
  Ni  Ni20  1  0.12534256  0.79200922  0.01549654  1.0
  Ni  Ni21  1  0.45867589  0.12534256  0.01549654  1.0
  Ni  Ni22  1  0.45867589  0.45867589  0.01549654  1.0
  Ni  Ni23  1  0.45867589  0.79200922  0.01549654  1.0
  Ni  Ni24  1  0.79200922  0.12534256  0.01549654  1.0
  Ni  Ni25  1  0.79200922  0.45867589  0.01549654  1.0
  Ni  Ni26  1  0.79200922  0.79200922  0.01549654  1.0
  Ni  Ni27  1  0.12534256  0.12534256  0.07851038  1.0
  Ni  Ni28  1  0.12534256  0.45867589  0.07851038  1.0
  Ni  Ni29  1  0.12534256  0.79200922  0.07851038  1.0
  Ni  Ni30  1  0.45867589  0.12534256  0.07851038  1.0
  Ni  Ni31  1  0.45867589  0.45867589  0.07851038  1.0
  Ni  Ni32  1  0.45867589  0.79200922  0.07851038  1.0
  Ni  Ni33  1  0.79200922  0.12534256  0.07851038  1.0
  Ni  Ni34  1  0.79200922  0.45867589  0.07851038  1.0
  Ni  Ni35  1  0.79200922  0.79200922  0.07851038  1.0
  Ni  Ni36  1  0.29063900  0.12534256  0.07851038  1.0
  Ni  Ni37  1  0.29063900  0.45867589  0.07851038  1.0
  Ni  Ni38  1  0.29063900  0.79200922  0.07851038  1.0
  Ni  Ni39  1  0.62397233  0.12534256  0.07851038  1.0
  Ni  Ni40  1  0.62397233  0.45867589  0.07851038  1.0
  Ni  Ni41  1  0.62397233  0.79200922  0.07851038  1.0
  Ni  Ni42  1  0.95730567  0.12534256  0.07851038  1.0
  Ni  Ni43  1  0.95730567  0.45867589  0.07851038  1.0
  Ni  Ni44  1  0.95730567  0.79200922  0.07851038  1.0
  Ni  Ni45  1  0.12534256  0.29063900  0.01549654  1.0
  Ni  Ni46  1  0.12534256  0.62397233  0.01549654  1.0
  Ni  Ni47  1  0.12534256  0.95730567  0.01549654  1.0
  Ni  Ni48  1  0.45867589  0.29063900  0.01549654  1.0
  Ni  Ni49  1  0.45867589  0.62397233  0.01549654  1.0
  Ni  Ni50  1  0.45867589  0.95730567  0.01549654  1.0
  Ni  Ni51  1  0.79200922  0.29063900  0.01549654  1.0
  Ni  Ni52  1  0.79200922  0.62397233  0.01549654  1.0
  Ni  Ni53  1  0.79200922  0.95730567  0.01549654  1.0
  Zr  Zr54  1  0.00000000  0.00000000  0.23450346  1.0
  Zr  Zr55  1  0.00000000  0.33333333  0.23450346  1.0
  Zr  Zr56  1  0.00000000  0.66666667  0.23450346  1.0
  Zr  Zr57  1  0.33333333  0.00000000  0.23450346  1.0
  Zr  Zr58  1  0.33333333  0.33333333  0.23450346  1.0
  Zr  Zr59  1  0.33333333  0.66666667  0.23450346  1.0
  Zr  Zr60  1  0.66666667  0.00000000  0.23450346  1.0
  Zr  Zr61  1  0.66666667  0.33333333  0.23450346  1.0
  Zr  Zr62  1  0.66666667  0.66666667  0.23450346  1.0
  Ni  Ni63  1  0.25000000  0.25000000  0.17200346  1.0
  Ni  Ni64  1  0.25000000  0.58333333  0.17200346  1.0
  Ni  Ni65  1  0.25000000  0.91666667  0.17200346  1.0
  Ni  Ni66  1  0.58333333  0.25000000  0.17200346  1.0
  Ni  Ni67  1  0.58333333  0.58333333  0.17200346  1.0
  Ni  Ni68  1  0.58333333  0.91666667  0.17200346  1.0
  Ni  Ni69  1  0.91666667  0.25000000  0.17200346  1.0
  Ni  Ni70  1  0.91666667  0.58333333  0.17200346  1.0
  Ni  Ni71  1  0.91666667  0.91666667  0.17200346  1.0
  Ni  Ni72  1  0.12534256  0.12534256  0.14049654  1.0
  Ni  Ni73  1  0.12534256  0.45867589  0.14049654  1.0
  Ni  Ni74  1  0.12534256  0.79200922  0.14049654  1.0
  Ni  Ni75  1  0.45867589  0.12534256  0.14049654  1.0
  Ni  Ni76  1  0.45867589  0.45867589  0.14049654  1.0
  Ni  Ni77  1  0.45867589  0.79200922  0.14049654  1.0
  Ni  Ni78  1  0.79200922  0.12534256  0.14049654  1.0
  Ni  Ni79  1  0.79200922  0.45867589  0.14049654  1.0
  Ni  Ni80  1  0.79200922  0.79200922  0.14049654  1.0
  Ni  Ni81  1  0.12534256  0.12534256  0.20351038  1.0
  Ni  Ni82  1  0.12534256  0.45867589  0.20351038  1.0
  Ni  Ni83  1  0.12534256  0.79200922  0.20351038  1.0
  Ni  Ni84  1  0.45867589  0.12534256  0.20351038  1.0
  Ni  Ni85  1  0.45867589  0.45867589  0.20351038  1.0
  Ni  Ni86  1  0.45867589  0.79200922  0.20351038  1.0
  Ni  Ni87  1  0.79200922  0.12534256  0.20351038  1.0
  Ni  Ni88  1  0.79200922  0.45867589  0.20351038  1.0
  Ni  Ni89  1  0.79200922  0.79200922  0.20351038  1.0
  Ni  Ni90  1  0.29063900  0.12534256  0.20351038  1.0
  Ni  Ni91  1  0.29063900  0.45867589  0.20351038  1.0
  Ni  Ni92  1  0.29063900  0.79200922  0.20351038  1.0
  Ni  Ni93  1  0.62397233  0.12534256  0.20351038  1.0
  Ni  Ni94  1  0.62397233  0.45867589  0.20351038  1.0
  Ni  Ni95  1  0.62397233  0.79200922  0.20351038  1.0
  Ni  Ni96  1  0.95730567  0.12534256  0.20351038  1.0
  Ni  Ni97  1  0.95730567  0.45867589  0.20351038  1.0
  Ni  Ni98  1  0.95730567  0.79200922  0.20351038  1.0
  Ni  Ni99  1  0.12534256  0.29063900  0.14049654  1.0
  Ni  Ni100  1  0.12534256  0.62397233  0.14049654  1.0
  Ni  Ni101  1  0.12534256  0.95730567  0.14049654  1.0
  Ni  Ni102  1  0.45867589  0.29063900  0.14049654  1.0
  Ni  Ni103  1  0.45867589  0.62397233  0.14049654  1.0
  Ni  Ni104  1  0.45867589  0.95730567  0.14049654  1.0
  Ni  Ni105  1  0.79200922  0.29063900  0.14049654  1.0
  Ni  Ni106  1  0.79200922  0.62397233  0.14049654  1.0
  Ni  Ni107  1  0.79200922  0.95730567  0.14049654  1.0
  Zr  Zr108  1  0.00000000  0.00000000  0.35950346  1.0
  Zr  Zr109  1  0.00000000  0.33333333  0.35950346  1.0
  Zr  Zr110  1  0.00000000  0.66666667  0.35950346  1.0
  Zr  Zr111  1  0.33333333  0.00000000  0.35950346  1.0
  Zr  Zr112  1  0.33333333  0.33333333  0.35950346  1.0
  Zr  Zr113  1  0.33333333  0.66666667  0.35950346  1.0
  Zr  Zr114  1  0.66666667  0.00000000  0.35950346  1.0
  Zr  Zr115  1  0.66666667  0.33333333  0.35950346  1.0
  Zr  Zr116  1  0.66666667  0.66666667  0.35950346  1.0
  Ni  Ni117  1  0.25000000  0.25000000  0.29700346  1.0
  Ni  Ni118  1  0.25000000  0.58333333  0.29700346  1.0
  Ni  Ni119  1  0.25000000  0.91666667  0.29700346  1.0
  Ni  Ni120  1  0.58333333  0.25000000  0.29700346  1.0
  Ni  Ni121  1  0.58333333  0.58333333  0.29700346  1.0
  Ni  Ni122  1  0.58333333  0.91666667  0.29700346  1.0
  Ni  Ni123  1  0.91666667  0.25000000  0.29700346  1.0
  Ni  Ni124  1  0.91666667  0.58333333  0.29700346  1.0
  Ni  Ni125  1  0.91666667  0.91666667  0.29700346  1.0
  Ni  Ni126  1  0.12534256  0.12534256  0.26549654  1.0
  Ni  Ni127  1  0.12534256  0.45867589  0.26549654  1.0
  Ni  Ni128  1  0.12534256  0.79200922  0.26549654  1.0
  Ni  Ni129  1  0.45867589  0.12534256  0.26549654  1.0
  Ni  Ni130  1  0.45867589  0.45867589  0.26549654  1.0
  Ni  Ni131  1  0.45867589  0.79200922  0.26549654  1.0
  Ni  Ni132  1  0.79200922  0.12534256  0.26549654  1.0
  Ni  Ni133  1  0.79200922  0.45867589  0.26549654  1.0
  Ni  Ni134  1  0.79200922  0.79200922  0.26549654  1.0
  Ni  Ni135  1  0.12534256  0.12534256  0.32851038  1.0
  Ni  Ni136  1  0.12534256  0.45867589  0.32851038  1.0
  Ni  Ni137  1  0.12534256  0.79200922  0.32851038  1.0
  Ni  Ni138  1  0.45867589  0.12534256  0.32851038  1.0
  Ni  Ni139  1  0.45867589  0.45867589  0.32851038  1.0
  Ni  Ni140  1  0.45867589  0.79200922  0.32851038  1.0
  Ni  Ni141  1  0.79200922  0.12534256  0.32851038  1.0
  Ni  Ni142  1  0.79200922  0.45867589  0.32851038  1.0
  Ni  Ni143  1  0.79200922  0.79200922  0.32851038  1.0
  Ni  Ni144  1  0.29063900  0.12534256  0.32851038  1.0
  Ni  Ni145  1  0.29063900  0.45867589  0.32851038  1.0
  Ni  Ni146  1  0.29063900  0.79200922  0.32851038  1.0
  Ni  Ni147  1  0.62397233  0.12534256  0.32851038  1.0
  Ni  Ni148  1  0.62397233  0.45867589  0.32851038  1.0
  Ni  Ni149  1  0.62397233  0.79200922  0.32851038  1.0
  Ni  Ni150  1  0.95730567  0.12534256  0.32851038  1.0
  Ni  Ni151  1  0.95730567  0.45867589  0.32851038  1.0
  Ni  Ni152  1  0.95730567  0.79200922  0.32851038  1.0
  Ni  Ni153  1  0.12534256  0.29063900  0.26549654  1.0
  Ni  Ni154  1  0.12534256  0.62397233  0.26549654  1.0
  Ni  Ni155  1  0.12534256  0.95730567  0.26549654  1.0
  Ni  Ni156  1  0.45867589  0.29063900  0.26549654  1.0
  Ni  Ni157  1  0.45867589  0.62397233  0.26549654  1.0
  Ni  Ni158  1  0.45867589  0.95730567  0.26549654  1.0
  Ni  Ni159  1  0.79200922  0.29063900  0.26549654  1.0
  Ni  Ni160  1  0.79200922  0.62397233  0.26549654  1.0
  Ni  Ni161  1  0.79200922  0.95730567  0.26549654  1.0
