# generated using pymatgen
data_ZrNi2
_symmetry_space_group_name_H-M   'P 1'
_cell_length_a   14.78197110
_cell_length_b   39.10941942
_cell_length_c   44.34591330
_cell_angle_alpha   40.89339465
_cell_angle_beta   60.00000000
_cell_angle_gamma   55.46241621
_symmetry_Int_Tables_number   1
_chemical_formula_structural   ZrNi2
_chemical_formula_sum   'Zr144 Ni288'
_cell_volume   13703.55663871
_cell_formula_units_Z   144
loop_
 _symmetry_equiv_pos_site_id
 _symmetry_equiv_pos_as_xyz
  1  'x, y, z'
loop_
 _atom_site_type_symbol
 _atom_site_label
 _atom_site_symmetry_multiplicity
 _atom_site_fract_x
 _atom_site_fract_y
 _atom_site_fract_z
 _atom_site_occupancy
  Zr  Zr0  1  0.00000000  0.00000000  0.10763889  1.0
  Zr  Zr1  1  0.00000000  0.33333333  0.10763889  1.0
  Zr  Zr2  1  0.00000000  0.66666667  0.10763889  1.0
  Zr  Zr3  1  0.33333333  0.00000000  0.10763889  1.0
  Zr  Zr4  1  0.33333333  0.33333333  0.10763889  1.0
  Zr  Zr5  1  0.33333333  0.66666667  0.10763889  1.0
  Zr  Zr6  1  0.66666667  0.00000000  0.10763889  1.0
  Zr  Zr7  1  0.66666667  0.33333333  0.10763889  1.0
  Zr  Zr8  1  0.66666667  0.66666667  0.10763889  1.0
  Zr  Zr9  1  0.00000000  0.16666667  0.05208333  1.0
  Zr  Zr10  1  0.00000000  0.50000000  0.05208333  1.0
  Zr  Zr11  1  0.00000000  0.83333333  0.05208333  1.0
  Zr  Zr12  1  0.33333333  0.16666667  0.05208333  1.0
  Zr  Zr13  1  0.33333333  0.50000000  0.05208333  1.0
  Zr  Zr14  1  0.33333333  0.83333333  0.05208333  1.0
  Zr  Zr15  1  0.66666667  0.16666667  0.05208333  1.0
  Zr  Zr16  1  0.66666667  0.50000000  0.05208333  1.0
  Zr  Zr17  1  0.66666667  0.83333333  0.05208333  1.0
  Zr  Zr18  1  0.08333333  0.04166667  0.01041667  1.0
  Zr  Zr19  1  0.08333333  0.37500000  0.01041667  1.0
  Zr  Zr20  1  0.08333333  0.70833333  0.01041667  1.0
  Zr  Zr21  1  0.41666667  0.04166667  0.01041667  1.0
  Zr  Zr22  1  0.41666667  0.37500000  0.01041667  1.0
  Zr  Zr23  1  0.41666667  0.70833333  0.01041667  1.0
  Zr  Zr24  1  0.75000000  0.04166667  0.01041667  1.0
  Zr  Zr25  1  0.75000000  0.37500000  0.01041667  1.0
  Zr  Zr26  1  0.75000000  0.70833333  0.01041667  1.0
  Zr  Zr27  1  0.08333333  0.20833333  0.06597222  1.0
  Zr  Zr28  1  0.08333333  0.54166667  0.06597222  1.0
  Zr  Zr29  1  0.08333333  0.87500000  0.06597222  1.0
  Zr  Zr30  1  0.41666667  0.20833333  0.06597222  1.0
  Zr  Zr31  1  0.41666667  0.54166667  0.06597222  1.0
  Zr  Zr32  1  0.41666667  0.87500000  0.06597222  1.0
  Zr  Zr33  1  0.75000000  0.20833333  0.06597222  1.0
  Zr  Zr34  1  0.75000000  0.54166667  0.06597222  1.0
  Zr  Zr35  1  0.75000000  0.87500000  0.06597222  1.0
  Ni  Ni36  1  0.20833333  0.10416667  0.03125000  1.0
  Ni  Ni37  1  0.20833333  0.43750000  0.03125000  1.0
  Ni  Ni38  1  0.20833333  0.77083333  0.03125000  1.0
  Ni  Ni39  1  0.54166667  0.10416667  0.03125000  1.0
  Ni  Ni40  1  0.54166667  0.43750000  0.03125000  1.0
  Ni  Ni41  1  0.54166667  0.77083333  0.03125000  1.0
  Ni  Ni42  1  0.87500000  0.10416667  0.03125000  1.0
  Ni  Ni43  1  0.87500000  0.43750000  0.03125000  1.0
  Ni  Ni44  1  0.87500000  0.77083333  0.03125000  1.0
  Ni  Ni45  1  0.20833333  0.27083333  0.08680556  1.0
  Ni  Ni46  1  0.20833333  0.60416667  0.08680556  1.0
  Ni  Ni47  1  0.20833333  0.93750000  0.08680556  1.0
  Ni  Ni48  1  0.54166667  0.27083333  0.08680556  1.0
  Ni  Ni49  1  0.54166667  0.60416667  0.08680556  1.0
  Ni  Ni50  1  0.54166667  0.93750000  0.08680556  1.0
  Ni  Ni51  1  0.87500000  0.27083333  0.08680556  1.0
  Ni  Ni52  1  0.87500000  0.60416667  0.08680556  1.0
  Ni  Ni53  1  0.87500000  0.93750000  0.08680556  1.0
  Ni  Ni54  1  0.20833333  0.10416667  0.08680556  1.0
  Ni  Ni55  1  0.20833333  0.43750000  0.08680556  1.0
  Ni  Ni56  1  0.20833333  0.77083333  0.08680556  1.0
  Ni  Ni57  1  0.54166667  0.10416667  0.08680556  1.0
  Ni  Ni58  1  0.54166667  0.43750000  0.08680556  1.0
  Ni  Ni59  1  0.54166667  0.77083333  0.08680556  1.0
  Ni  Ni60  1  0.87500000  0.10416667  0.08680556  1.0
  Ni  Ni61  1  0.87500000  0.43750000  0.08680556  1.0
  Ni  Ni62  1  0.87500000  0.77083333  0.08680556  1.0
  Ni  Ni63  1  0.20833333  0.27083333  0.03125000  1.0
  Ni  Ni64  1  0.20833333  0.60416667  0.03125000  1.0
  Ni  Ni65  1  0.20833333  0.93750000  0.03125000  1.0
  Ni  Ni66  1  0.54166667  0.27083333  0.03125000  1.0
  Ni  Ni67  1  0.54166667  0.60416667  0.03125000  1.0
  Ni  Ni68  1  0.54166667  0.93750000  0.03125000  1.0
  Ni  Ni69  1  0.87500000  0.27083333  0.03125000  1.0
  Ni  Ni70  1  0.87500000  0.60416667  0.03125000  1.0
  Ni  Ni71  1  0.87500000  0.93750000  0.03125000  1.0
  Ni  Ni72  1  0.04166667  0.10416667  0.03125000  1.0
  Ni  Ni73  1  0.04166667  0.43750000  0.03125000  1.0
  Ni  Ni74  1  0.04166667  0.77083333  0.03125000  1.0
  Ni  Ni75  1  0.37500000  0.10416667  0.03125000  1.0
  Ni  Ni76  1  0.37500000  0.43750000  0.03125000  1.0
  Ni  Ni77  1  0.37500000  0.77083333  0.03125000  1.0
  Ni  Ni78  1  0.70833333  0.10416667  0.03125000  1.0
  Ni  Ni79  1  0.70833333  0.43750000  0.03125000  1.0
  Ni  Ni80  1  0.70833333  0.77083333  0.03125000  1.0
  Ni  Ni81  1  0.04166667  0.27083333  0.08680556  1.0
  Ni  Ni82  1  0.04166667  0.60416667  0.08680556  1.0
  Ni  Ni83  1  0.04166667  0.93750000  0.08680556  1.0
  Ni  Ni84  1  0.37500000  0.27083333  0.08680556  1.0
  Ni  Ni85  1  0.37500000  0.60416667  0.08680556  1.0
  Ni  Ni86  1  0.37500000  0.93750000  0.08680556  1.0
  Ni  Ni87  1  0.70833333  0.27083333  0.08680556  1.0
  Ni  Ni88  1  0.70833333  0.60416667  0.08680556  1.0
  Ni  Ni89  1  0.70833333  0.93750000  0.08680556  1.0
  Ni  Ni90  1  0.20833333  0.02083333  0.05902778  1.0
  Ni  Ni91  1  0.20833333  0.35416667  0.05902778  1.0
  Ni  Ni92  1  0.20833333  0.68750000  0.05902778  1.0
  Ni  Ni93  1  0.54166667  0.02083333  0.05902778  1.0
  Ni  Ni94  1  0.54166667  0.35416667  0.05902778  1.0
  Ni  Ni95  1  0.54166667  0.68750000  0.05902778  1.0
  Ni  Ni96  1  0.87500000  0.02083333  0.05902778  1.0
  Ni  Ni97  1  0.87500000  0.35416667  0.05902778  1.0
  Ni  Ni98  1  0.87500000  0.68750000  0.05902778  1.0
  Ni  Ni99  1  0.20833333  0.18750000  0.00347222  1.0
  Ni  Ni100  1  0.20833333  0.52083333  0.00347222  1.0
  Ni  Ni101  1  0.20833333  0.85416667  0.00347222  1.0
  Ni  Ni102  1  0.54166667  0.18750000  0.00347222  1.0
  Ni  Ni103  1  0.54166667  0.52083333  0.00347222  1.0
  Ni  Ni104  1  0.54166667  0.85416667  0.00347222  1.0
  Ni  Ni105  1  0.87500000  0.18750000  0.00347222  1.0
  Ni  Ni106  1  0.87500000  0.52083333  0.00347222  1.0
  Ni  Ni107  1  0.87500000  0.85416667  0.00347222  1.0
  Zr  Zr108  1  0.00000000  0.00000000  0.21875000  1.0
  Zr  Zr109  1  0.00000000  0.33333333  0.21875000  1.0
  Zr  Zr110  1  0.00000000  0.66666667  0.21875000  1.0
  Zr  Zr111  1  0.33333333  0.00000000  0.21875000  1.0
  Zr  Zr112  1  0.33333333  0.33333333  0.21875000  1.0
  Zr  Zr113  1  0.33333333  0.66666667  0.21875000  1.0
  Zr  Zr114  1  0.66666667  0.00000000  0.21875000  1.0
  Zr  Zr115  1  0.66666667  0.33333333  0.21875000  1.0
  Zr  Zr116  1  0.66666667  0.66666667  0.21875000  1.0
  Zr  Zr117  1  0.00000000  0.16666667  0.16319444  1.0
  Zr  Zr118  1  0.00000000  0.50000000  0.16319444  1.0
  Zr  Zr119  1  0.00000000  0.83333333  0.16319444  1.0
  Zr  Zr120  1  0.33333333  0.16666667  0.16319444  1.0
  Zr  Zr121  1  0.33333333  0.50000000  0.16319444  1.0
  Zr  Zr122  1  0.33333333  0.83333333  0.16319444  1.0
  Zr  Zr123  1  0.66666667  0.16666667  0.16319444  1.0
  Zr  Zr124  1  0.66666667  0.50000000  0.16319444  1.0
  Zr  Zr125  1  0.66666667  0.83333333  0.16319444  1.0
  Zr  Zr126  1  0.08333333  0.04166667  0.12152778  1.0
  Zr  Zr127  1  0.08333333  0.37500000  0.12152778  1.0
  Zr  Zr128  1  0.08333333  0.70833333  0.12152778  1.0
  Zr  Zr129  1  0.41666667  0.04166667  0.12152778  1.0
  Zr  Zr130  1  0.41666667  0.37500000  0.12152778  1.0
  Zr  Zr131  1  0.41666667  0.70833333  0.12152778  1.0
  Zr  Zr132  1  0.75000000  0.04166667  0.12152778  1.0
  Zr  Zr133  1  0.75000000  0.37500000  0.12152778  1.0
  Zr  Zr134  1  0.75000000  0.70833333  0.12152778  1.0
  Zr  Zr135  1  0.08333333  0.20833333  0.17708333  1.0
  Zr  Zr136  1  0.08333333  0.54166667  0.17708333  1.0
  Zr  Zr137  1  0.08333333  0.87500000  0.17708333  1.0
  Zr  Zr138  1  0.41666667  0.20833333  0.17708333  1.0
  Zr  Zr139  1  0.41666667  0.54166667  0.17708333  1.0
  Zr  Zr140  1  0.41666667  0.87500000  0.17708333  1.0
  Zr  Zr141  1  0.75000000  0.20833333  0.17708333  1.0
  Zr  Zr142  1  0.75000000  0.54166667  0.17708333  1.0
  Zr  Zr143  1  0.75000000  0.87500000  0.17708333  1.0
  Ni  Ni144  1  0.20833333  0.10416667  0.14236111  1.0
  Ni  Ni145  1  0.20833333  0.43750000  0.14236111  1.0
  Ni  Ni146  1  0.20833333  0.77083333  0.14236111  1.0
  Ni  Ni147  1  0.54166667  0.10416667  0.14236111  1.0
  Ni  Ni148  1  0.54166667  0.43750000  0.14236111  1.0
  Ni  Ni149  1  0.54166667  0.77083333  0.14236111  1.0
  Ni  Ni150  1  0.87500000  0.10416667  0.14236111  1.0
  Ni  Ni151  1  0.87500000  0.43750000  0.14236111  1.0
  Ni  Ni152  1  0.87500000  0.77083333  0.14236111  1.0
  Ni  Ni153  1  0.20833333  0.27083333  0.19791667  1.0
  Ni  Ni154  1  0.20833333  0.60416667  0.19791667  1.0
  Ni  Ni155  1  0.20833333  0.93750000  0.19791667  1.0
  Ni  Ni156  1  0.54166667  0.27083333  0.19791667  1.0
  Ni  Ni157  1  0.54166667  0.60416667  0.19791667  1.0
  Ni  Ni158  1  0.54166667  0.93750000  0.19791667  1.0
  Ni  Ni159  1  0.87500000  0.27083333  0.19791667  1.0
  Ni  Ni160  1  0.87500000  0.60416667  0.19791667  1.0
  Ni  Ni161  1  0.87500000  0.93750000  0.19791667  1.0
  Ni  Ni162  1  0.20833333  0.10416667  0.19791667  1.0
  Ni  Ni163  1  0.20833333  0.43750000  0.19791667  1.0
  Ni  Ni164  1  0.20833333  0.77083333  0.19791667  1.0
  Ni  Ni165  1  0.54166667  0.10416667  0.19791667  1.0
  Ni  Ni166  1  0.54166667  0.43750000  0.19791667  1.0
  Ni  Ni167  1  0.54166667  0.77083333  0.19791667  1.0
  Ni  Ni168  1  0.87500000  0.10416667  0.19791667  1.0
  Ni  Ni169  1  0.87500000  0.43750000  0.19791667  1.0
  Ni  Ni170  1  0.87500000  0.77083333  0.19791667  1.0
  Ni  Ni171  1  0.20833333  0.27083333  0.14236111  1.0
  Ni  Ni172  1  0.20833333  0.60416667  0.14236111  1.0
  Ni  Ni173  1  0.20833333  0.93750000  0.14236111  1.0
  Ni  Ni174  1  0.54166667  0.27083333  0.14236111  1.0
  Ni  Ni175  1  0.54166667  0.60416667  0.14236111  1.0
  Ni  Ni176  1  0.54166667  0.93750000  0.14236111  1.0
  Ni  Ni177  1  0.87500000  0.27083333  0.14236111  1.0
  Ni  Ni178  1  0.87500000  0.60416667  0.14236111  1.0
  Ni  Ni179  1  0.87500000  0.93750000  0.14236111  1.0
  Ni  Ni180  1  0.04166667  0.10416667  0.14236111  1.0
  Ni  Ni181  1  0.04166667  0.43750000  0.14236111  1.0
  Ni  Ni182  1  0.04166667  0.77083333  0.14236111  1.0
  Ni  Ni183  1  0.37500000  0.10416667  0.14236111  1.0
  Ni  Ni184  1  0.37500000  0.43750000  0.14236111  1.0
  Ni  Ni185  1  0.37500000  0.77083333  0.14236111  1.0
  Ni  Ni186  1  0.70833333  0.10416667  0.14236111  1.0
  Ni  Ni187  1  0.70833333  0.43750000  0.14236111  1.0
  Ni  Ni188  1  0.70833333  0.77083333  0.14236111  1.0
  Ni  Ni189  1  0.04166667  0.27083333  0.19791667  1.0
  Ni  Ni190  1  0.04166667  0.60416667  0.19791667  1.0
  Ni  Ni191  1  0.04166667  0.93750000  0.19791667  1.0
  Ni  Ni192  1  0.37500000  0.27083333  0.19791667  1.0
  Ni  Ni193  1  0.37500000  0.60416667  0.19791667  1.0
  Ni  Ni194  1  0.37500000  0.93750000  0.19791667  1.0
  Ni  Ni195  1  0.70833333  0.27083333  0.19791667  1.0
  Ni  Ni196  1  0.70833333  0.60416667  0.19791667  1.0
  Ni  Ni197  1  0.70833333  0.93750000  0.19791667  1.0
  Ni  Ni198  1  0.20833333  0.02083333  0.17013889  1.0
  Ni  Ni199  1  0.20833333  0.35416667  0.17013889  1.0
  Ni  Ni200  1  0.20833333  0.68750000  0.17013889  1.0
  Ni  Ni201  1  0.54166667  0.02083333  0.17013889  1.0
  Ni  Ni202  1  0.54166667  0.35416667  0.17013889  1.0
  Ni  Ni203  1  0.54166667  0.68750000  0.17013889  1.0
  Ni  Ni204  1  0.87500000  0.02083333  0.17013889  1.0
  Ni  Ni205  1  0.87500000  0.35416667  0.17013889  1.0
  Ni  Ni206  1  0.87500000  0.68750000  0.17013889  1.0
  Ni  Ni207  1  0.20833333  0.18750000  0.11458333  1.0
  Ni  Ni208  1  0.20833333  0.52083333  0.11458333  1.0
  Ni  Ni209  1  0.20833333  0.85416667  0.11458333  1.0
  Ni  Ni210  1  0.54166667  0.18750000  0.11458333  1.0
  Ni  Ni211  1  0.54166667  0.52083333  0.11458333  1.0
  Ni  Ni212  1  0.54166667  0.85416667  0.11458333  1.0
  Ni  Ni213  1  0.87500000  0.18750000  0.11458333  1.0
  Ni  Ni214  1  0.87500000  0.52083333  0.11458333  1.0
  Ni  Ni215  1  0.87500000  0.85416667  0.11458333  1.0
  Zr  Zr216  1  0.00000000  0.00000000  0.32986111  1.0
  Zr  Zr217  1  0.00000000  0.33333333  0.32986111  1.0
  Zr  Zr218  1  0.00000000  0.66666667  0.32986111  1.0
  Zr  Zr219  1  0.33333333  0.00000000  0.32986111  1.0
  Zr  Zr220  1  0.33333333  0.33333333  0.32986111  1.0
  Zr  Zr221  1  0.33333333  0.66666667  0.32986111  1.0
  Zr  Zr222  1  0.66666667  0.00000000  0.32986111  1.0
  Zr  Zr223  1  0.66666667  0.33333333  0.32986111  1.0
  Zr  Zr224  1  0.66666667  0.66666667  0.32986111  1.0
  Zr  Zr225  1  0.00000000  0.16666667  0.27430556  1.0
  Zr  Zr226  1  0.00000000  0.50000000  0.27430556  1.0
  Zr  Zr227  1  0.00000000  0.83333333  0.27430556  1.0
  Zr  Zr228  1  0.33333333  0.16666667  0.27430556  1.0
  Zr  Zr229  1  0.33333333  0.50000000  0.27430556  1.0
  Zr  Zr230  1  0.33333333  0.83333333  0.27430556  1.0
  Zr  Zr231  1  0.66666667  0.16666667  0.27430556  1.0
  Zr  Zr232  1  0.66666667  0.50000000  0.27430556  1.0
  Zr  Zr233  1  0.66666667  0.83333333  0.27430556  1.0
  Zr  Zr234  1  0.08333333  0.04166667  0.23263889  1.0
  Zr  Zr235  1  0.08333333  0.37500000  0.23263889  1.0
  Zr  Zr236  1  0.08333333  0.70833333  0.23263889  1.0
  Zr  Zr237  1  0.41666667  0.04166667  0.23263889  1.0
  Zr  Zr238  1  0.41666667  0.37500000  0.23263889  1.0
  Zr  Zr239  1  0.41666667  0.70833333  0.23263889  1.0
  Zr  Zr240  1  0.75000000  0.04166667  0.23263889  1.0
  Zr  Zr241  1  0.75000000  0.37500000  0.23263889  1.0
  Zr  Zr242  1  0.75000000  0.70833333  0.23263889  1.0
  Zr  Zr243  1  0.08333333  0.20833333  0.28819444  1.0
  Zr  Zr244  1  0.08333333  0.54166667  0.28819444  1.0
  Zr  Zr245  1  0.08333333  0.87500000  0.28819444  1.0
  Zr  Zr246  1  0.41666667  0.20833333  0.28819444  1.0
  Zr  Zr247  1  0.41666667  0.54166667  0.28819444  1.0
  Zr  Zr248  1  0.41666667  0.87500000  0.28819444  1.0
  Zr  Zr249  1  0.75000000  0.20833333  0.28819444  1.0
  Zr  Zr250  1  0.75000000  0.54166667  0.28819444  1.0
  Zr  Zr251  1  0.75000000  0.87500000  0.28819444  1.0
  Ni  Ni252  1  0.20833333  0.10416667  0.25347222  1.0
  Ni  Ni253  1  0.20833333  0.43750000  0.25347222  1.0
  Ni  Ni254  1  0.20833333  0.77083333  0.25347222  1.0
  Ni  Ni255  1  0.54166667  0.10416667  0.25347222  1.0
  Ni  Ni256  1  0.54166667  0.43750000  0.25347222  1.0
  Ni  Ni257  1  0.54166667  0.77083333  0.25347222  1.0
  Ni  Ni258  1  0.87500000  0.10416667  0.25347222  1.0
  Ni  Ni259  1  0.87500000  0.43750000  0.25347222  1.0
  Ni  Ni260  1  0.87500000  0.77083333  0.25347222  1.0
  Ni  Ni261  1  0.20833333  0.27083333  0.30902778  1.0
  Ni  Ni262  1  0.20833333  0.60416667  0.30902778  1.0
  Ni  Ni263  1  0.20833333  0.93750000  0.30902778  1.0
  Ni  Ni264  1  0.54166667  0.27083333  0.30902778  1.0
  Ni  Ni265  1  0.54166667  0.60416667  0.30902778  1.0
  Ni  Ni266  1  0.54166667  0.93750000  0.30902778  1.0
  Ni  Ni267  1  0.87500000  0.27083333  0.30902778  1.0
  Ni  Ni268  1  0.87500000  0.60416667  0.30902778  1.0
  Ni  Ni269  1  0.87500000  0.93750000  0.30902778  1.0
  Ni  Ni270  1  0.20833333  0.10416667  0.30902778  1.0
  Ni  Ni271  1  0.20833333  0.43750000  0.30902778  1.0
  Ni  Ni272  1  0.20833333  0.77083333  0.30902778  1.0
  Ni  Ni273  1  0.54166667  0.10416667  0.30902778  1.0
  Ni  Ni274  1  0.54166667  0.43750000  0.30902778  1.0
  Ni  Ni275  1  0.54166667  0.77083333  0.30902778  1.0
  Ni  Ni276  1  0.87500000  0.10416667  0.30902778  1.0
  Ni  Ni277  1  0.87500000  0.43750000  0.30902778  1.0
  Ni  Ni278  1  0.87500000  0.77083333  0.30902778  1.0
  Ni  Ni279  1  0.20833333  0.27083333  0.25347222  1.0
  Ni  Ni280  1  0.20833333  0.60416667  0.25347222  1.0
  Ni  Ni281  1  0.20833333  0.93750000  0.25347222  1.0
  Ni  Ni282  1  0.54166667  0.27083333  0.25347222  1.0
  Ni  Ni283  1  0.54166667  0.60416667  0.25347222  1.0
  Ni  Ni284  1  0.54166667  0.93750000  0.25347222  1.0
  Ni  Ni285  1  0.87500000  0.27083333  0.25347222  1.0
  Ni  Ni286  1  0.87500000  0.60416667  0.25347222  1.0
  Ni  Ni287  1  0.87500000  0.93750000  0.25347222  1.0
  Ni  Ni288  1  0.04166667  0.10416667  0.25347222  1.0
  Ni  Ni289  1  0.04166667  0.43750000  0.25347222  1.0
  Ni  Ni290  1  0.04166667  0.77083333  0.25347222  1.0
  Ni  Ni291  1  0.37500000  0.10416667  0.25347222  1.0
  Ni  Ni292  1  0.37500000  0.43750000  0.25347222  1.0
  Ni  Ni293  1  0.37500000  0.77083333  0.25347222  1.0
  Ni  Ni294  1  0.70833333  0.10416667  0.25347222  1.0
  Ni  Ni295  1  0.70833333  0.43750000  0.25347222  1.0
  Ni  Ni296  1  0.70833333  0.77083333  0.25347222  1.0
  Ni  Ni297  1  0.04166667  0.27083333  0.30902778  1.0
  Ni  Ni298  1  0.04166667  0.60416667  0.30902778  1.0
  Ni  Ni299  1  0.04166667  0.93750000  0.30902778  1.0
  Ni  Ni300  1  0.37500000  0.27083333  0.30902778  1.0
  Ni  Ni301  1  0.37500000  0.60416667  0.30902778  1.0
  Ni  Ni302  1  0.37500000  0.93750000  0.30902778  1.0
  Ni  Ni303  1  0.70833333  0.27083333  0.30902778  1.0
  Ni  Ni304  1  0.70833333  0.60416667  0.30902778  1.0
  Ni  Ni305  1  0.70833333  0.93750000  0.30902778  1.0
  Ni  Ni306  1  0.20833333  0.02083333  0.28125000  1.0
  Ni  Ni307  1  0.20833333  0.35416667  0.28125000  1.0
  Ni  Ni308  1  0.20833333  0.68750000  0.28125000  1.0
  Ni  Ni309  1  0.54166667  0.02083333  0.28125000  1.0
  Ni  Ni310  1  0.54166667  0.35416667  0.28125000  1.0
  Ni  Ni311  1  0.54166667  0.68750000  0.28125000  1.0
  Ni  Ni312  1  0.87500000  0.02083333  0.28125000  1.0
  Ni  Ni313  1  0.87500000  0.35416667  0.28125000  1.0
  Ni  Ni314  1  0.87500000  0.68750000  0.28125000  1.0
  Ni  Ni315  1  0.20833333  0.18750000  0.22569444  1.0
  Ni  Ni316  1  0.20833333  0.52083333  0.22569444  1.0
  Ni  Ni317  1  0.20833333  0.85416667  0.22569444  1.0
  Ni  Ni318  1  0.54166667  0.18750000  0.22569444  1.0
  Ni  Ni319  1  0.54166667  0.52083333  0.22569444  1.0
  Ni  Ni320  1  0.54166667  0.85416667  0.22569444  1.0
  Ni  Ni321  1  0.87500000  0.18750000  0.22569444  1.0
  Ni  Ni322  1  0.87500000  0.52083333  0.22569444  1.0
  Ni  Ni323  1  0.87500000  0.85416667  0.22569444  1.0
  Zr  Zr324  1  0.00000000  0.00000000  0.44097222  1.0
  Zr  Zr325  1  0.00000000  0.33333333  0.44097222  1.0
  Zr  Zr326  1  0.00000000  0.66666667  0.44097222  1.0
  Zr  Zr327  1  0.33333333  0.00000000  0.44097222  1.0
  Zr  Zr328  1  0.33333333  0.33333333  0.44097222  1.0
  Zr  Zr329  1  0.33333333  0.66666667  0.44097222  1.0
  Zr  Zr330  1  0.66666667  0.00000000  0.44097222  1.0
  Zr  Zr331  1  0.66666667  0.33333333  0.44097222  1.0
  Zr  Zr332  1  0.66666667  0.66666667  0.44097222  1.0
  Zr  Zr333  1  0.00000000  0.16666667  0.38541667  1.0
  Zr  Zr334  1  0.00000000  0.50000000  0.38541667  1.0
  Zr  Zr335  1  0.00000000  0.83333333  0.38541667  1.0
  Zr  Zr336  1  0.33333333  0.16666667  0.38541667  1.0
  Zr  Zr337  1  0.33333333  0.50000000  0.38541667  1.0
  Zr  Zr338  1  0.33333333  0.83333333  0.38541667  1.0
  Zr  Zr339  1  0.66666667  0.16666667  0.38541667  1.0
  Zr  Zr340  1  0.66666667  0.50000000  0.38541667  1.0
  Zr  Zr341  1  0.66666667  0.83333333  0.38541667  1.0
  Zr  Zr342  1  0.08333333  0.04166667  0.34375000  1.0
  Zr  Zr343  1  0.08333333  0.37500000  0.34375000  1.0
  Zr  Zr344  1  0.08333333  0.70833333  0.34375000  1.0
  Zr  Zr345  1  0.41666667  0.04166667  0.34375000  1.0
  Zr  Zr346  1  0.41666667  0.37500000  0.34375000  1.0
  Zr  Zr347  1  0.41666667  0.70833333  0.34375000  1.0
  Zr  Zr348  1  0.75000000  0.04166667  0.34375000  1.0
  Zr  Zr349  1  0.75000000  0.37500000  0.34375000  1.0
  Zr  Zr350  1  0.75000000  0.70833333  0.34375000  1.0
  Zr  Zr351  1  0.08333333  0.20833333  0.39930556  1.0
  Zr  Zr352  1  0.08333333  0.54166667  0.39930556  1.0
  Zr  Zr353  1  0.08333333  0.87500000  0.39930556  1.0
  Zr  Zr354  1  0.41666667  0.20833333  0.39930556  1.0
  Zr  Zr355  1  0.41666667  0.54166667  0.39930556  1.0
  Zr  Zr356  1  0.41666667  0.87500000  0.39930556  1.0
  Zr  Zr357  1  0.75000000  0.20833333  0.39930556  1.0
  Zr  Zr358  1  0.75000000  0.54166667  0.39930556  1.0
  Zr  Zr359  1  0.75000000  0.87500000  0.39930556  1.0
  Ni  Ni360  1  0.20833333  0.10416667  0.36458333  1.0
  Ni  Ni361  1  0.20833333  0.43750000  0.36458333  1.0
  Ni  Ni362  1  0.20833333  0.77083333  0.36458333  1.0
  Ni  Ni363  1  0.54166667  0.10416667  0.36458333  1.0
  Ni  Ni364  1  0.54166667  0.43750000  0.36458333  1.0
  Ni  Ni365  1  0.54166667  0.77083333  0.36458333  1.0
  Ni  Ni366  1  0.87500000  0.10416667  0.36458333  1.0
  Ni  Ni367  1  0.87500000  0.43750000  0.36458333  1.0
  Ni  Ni368  1  0.87500000  0.77083333  0.36458333  1.0
  Ni  Ni369  1  0.20833333  0.27083333  0.42013889  1.0
  Ni  Ni370  1  0.20833333  0.60416667  0.42013889  1.0
  Ni  Ni371  1  0.20833333  0.93750000  0.42013889  1.0
  Ni  Ni372  1  0.54166667  0.27083333  0.42013889  1.0
  Ni  Ni373  1  0.54166667  0.60416667  0.42013889  1.0
  Ni  Ni374  1  0.54166667  0.93750000  0.42013889  1.0
  Ni  Ni375  1  0.87500000  0.27083333  0.42013889  1.0
  Ni  Ni376  1  0.87500000  0.60416667  0.42013889  1.0
  Ni  Ni377  1  0.87500000  0.93750000  0.42013889  1.0
  Ni  Ni378  1  0.20833333  0.10416667  0.42013889  1.0
  Ni  Ni379  1  0.20833333  0.43750000  0.42013889  1.0
  Ni  Ni380  1  0.20833333  0.77083333  0.42013889  1.0
  Ni  Ni381  1  0.54166667  0.10416667  0.42013889  1.0
  Ni  Ni382  1  0.54166667  0.43750000  0.42013889  1.0
  Ni  Ni383  1  0.54166667  0.77083333  0.42013889  1.0
  Ni  Ni384  1  0.87500000  0.10416667  0.42013889  1.0
  Ni  Ni385  1  0.87500000  0.43750000  0.42013889  1.0
  Ni  Ni386  1  0.87500000  0.77083333  0.42013889  1.0
  Ni  Ni387  1  0.20833333  0.27083333  0.36458333  1.0
  Ni  Ni388  1  0.20833333  0.60416667  0.36458333  1.0
  Ni  Ni389  1  0.20833333  0.93750000  0.36458333  1.0
  Ni  Ni390  1  0.54166667  0.27083333  0.36458333  1.0
  Ni  Ni391  1  0.54166667  0.60416667  0.36458333  1.0
  Ni  Ni392  1  0.54166667  0.93750000  0.36458333  1.0
  Ni  Ni393  1  0.87500000  0.27083333  0.36458333  1.0
  Ni  Ni394  1  0.87500000  0.60416667  0.36458333  1.0
  Ni  Ni395  1  0.87500000  0.93750000  0.36458333  1.0
  Ni  Ni396  1  0.04166667  0.10416667  0.36458333  1.0
  Ni  Ni397  1  0.04166667  0.43750000  0.36458333  1.0
  Ni  Ni398  1  0.04166667  0.77083333  0.36458333  1.0
  Ni  Ni399  1  0.37500000  0.10416667  0.36458333  1.0
  Ni  Ni400  1  0.37500000  0.43750000  0.36458333  1.0
  Ni  Ni401  1  0.37500000  0.77083333  0.36458333  1.0
  Ni  Ni402  1  0.70833333  0.10416667  0.36458333  1.0
  Ni  Ni403  1  0.70833333  0.43750000  0.36458333  1.0
  Ni  Ni404  1  0.70833333  0.77083333  0.36458333  1.0
  Ni  Ni405  1  0.04166667  0.27083333  0.42013889  1.0
  Ni  Ni406  1  0.04166667  0.60416667  0.42013889  1.0
  Ni  Ni407  1  0.04166667  0.93750000  0.42013889  1.0
  Ni  Ni408  1  0.37500000  0.27083333  0.42013889  1.0
  Ni  Ni409  1  0.37500000  0.60416667  0.42013889  1.0
  Ni  Ni410  1  0.37500000  0.93750000  0.42013889  1.0
  Ni  Ni411  1  0.70833333  0.27083333  0.42013889  1.0
  Ni  Ni412  1  0.70833333  0.60416667  0.42013889  1.0
  Ni  Ni413  1  0.70833333  0.93750000  0.42013889  1.0
  Ni  Ni414  1  0.20833333  0.02083333  0.39236111  1.0
  Ni  Ni415  1  0.20833333  0.35416667  0.39236111  1.0
  Ni  Ni416  1  0.20833333  0.68750000  0.39236111  1.0
  Ni  Ni417  1  0.54166667  0.02083333  0.39236111  1.0
  Ni  Ni418  1  0.54166667  0.35416667  0.39236111  1.0
  Ni  Ni419  1  0.54166667  0.68750000  0.39236111  1.0
  Ni  Ni420  1  0.87500000  0.02083333  0.39236111  1.0
  Ni  Ni421  1  0.87500000  0.35416667  0.39236111  1.0
  Ni  Ni422  1  0.87500000  0.68750000  0.39236111  1.0
  Ni  Ni423  1  0.20833333  0.18750000  0.33680556  1.0
  Ni  Ni424  1  0.20833333  0.52083333  0.33680556  1.0
  Ni  Ni425  1  0.20833333  0.85416667  0.33680556  1.0
  Ni  Ni426  1  0.54166667  0.18750000  0.33680556  1.0
  Ni  Ni427  1  0.54166667  0.52083333  0.33680556  1.0
  Ni  Ni428  1  0.54166667  0.85416667  0.33680556  1.0
  Ni  Ni429  1  0.87500000  0.18750000  0.33680556  1.0
  Ni  Ni430  1  0.87500000  0.52083333  0.33680556  1.0
  Ni  Ni431  1  0.87500000  0.85416667  0.33680556  1.0
