# generated using pymatgen
data_ZrNi3
_symmetry_space_group_name_H-M   'P 1'
_cell_length_a   20.52110332
_cell_length_b   30.35705185
_cell_length_c   29.41609492
_cell_angle_alpha   97.50637376
_cell_angle_beta   92.51034332
_cell_angle_gamma   109.35594042
_symmetry_Int_Tables_number   1
_chemical_formula_structural   ZrNi3
_chemical_formula_sum   'Zr144 Ni432'
_cell_volume   17066.65153378
_cell_formula_units_Z   144
loop_
 _symmetry_equiv_pos_site_id
 _symmetry_equiv_pos_as_xyz
  1  'x, y, z'
loop_
 _atom_site_type_symbol
 _atom_site_label
 _atom_site_symmetry_multiplicity
 _atom_site_fract_x
 _atom_site_fract_y
 _atom_site_fract_z
 _atom_site_occupancy
  Ni  Ni0  1  0.31148259  0.01230278  0.05531556  1.0
  Ni  Ni1  1  0.31148259  0.34563611  0.05531556  1.0
  Ni  Ni2  1  0.31148259  0.67896944  0.05531556  1.0
  Ni  Ni3  1  0.64481593  0.01230278  0.05531556  1.0
  Ni  Ni4  1  0.64481593  0.34563611  0.05531556  1.0
  Ni  Ni5  1  0.64481593  0.67896944  0.05531556  1.0
  Ni  Ni6  1  0.97814926  0.01230278  0.05531556  1.0
  Ni  Ni7  1  0.97814926  0.34563611  0.05531556  1.0
  Ni  Ni8  1  0.97814926  0.67896944  0.05531556  1.0
  Ni  Ni9  1  0.23740852  0.12341389  0.11087111  1.0
  Ni  Ni10  1  0.23740852  0.45674722  0.11087111  1.0
  Ni  Ni11  1  0.23740852  0.79008056  0.11087111  1.0
  Ni  Ni12  1  0.57074185  0.12341389  0.11087111  1.0
  Ni  Ni13  1  0.57074185  0.45674722  0.11087111  1.0
  Ni  Ni14  1  0.57074185  0.79008056  0.11087111  1.0
  Ni  Ni15  1  0.90407519  0.12341389  0.11087111  1.0
  Ni  Ni16  1  0.90407519  0.45674722  0.11087111  1.0
  Ni  Ni17  1  0.90407519  0.79008056  0.11087111  1.0
  Ni  Ni18  1  0.00454963  0.10246056  0.07444278  1.0
  Ni  Ni19  1  0.00454963  0.43579389  0.07444278  1.0
  Ni  Ni20  1  0.00454963  0.76912722  0.07444278  1.0
  Ni  Ni21  1  0.33788296  0.10246056  0.07444278  1.0
  Ni  Ni22  1  0.33788296  0.43579389  0.07444278  1.0
  Ni  Ni23  1  0.33788296  0.76912722  0.07444278  1.0
  Ni  Ni24  1  0.67121630  0.10246056  0.07444278  1.0
  Ni  Ni25  1  0.67121630  0.43579389  0.07444278  1.0
  Ni  Ni26  1  0.67121630  0.76912722  0.07444278  1.0
  Ni  Ni27  1  0.07862370  0.32468278  0.01888722  1.0
  Ni  Ni28  1  0.07862370  0.65801611  0.01888722  1.0
  Ni  Ni29  1  0.07862370  0.99134944  0.01888722  1.0
  Ni  Ni30  1  0.41195704  0.32468278  0.01888722  1.0
  Ni  Ni31  1  0.41195704  0.65801611  0.01888722  1.0
  Ni  Ni32  1  0.41195704  0.99134944  0.01888722  1.0
  Ni  Ni33  1  0.74529037  0.32468278  0.01888722  1.0
  Ni  Ni34  1  0.74529037  0.65801611  0.01888722  1.0
  Ni  Ni35  1  0.74529037  0.99134944  0.01888722  1.0
  Ni  Ni36  1  0.21190556  0.21357167  0.05214333  1.0
  Ni  Ni37  1  0.21190556  0.54690500  0.05214333  1.0
  Ni  Ni38  1  0.21190556  0.88023833  0.05214333  1.0
  Ni  Ni39  1  0.54523889  0.21357167  0.05214333  1.0
  Ni  Ni40  1  0.54523889  0.54690500  0.05214333  1.0
  Ni  Ni41  1  0.54523889  0.88023833  0.05214333  1.0
  Ni  Ni42  1  0.87857222  0.21357167  0.05214333  1.0
  Ni  Ni43  1  0.87857222  0.54690500  0.05214333  1.0
  Ni  Ni44  1  0.87857222  0.88023833  0.05214333  1.0
  Ni  Ni45  1  0.13783148  0.32468278  0.10769889  1.0
  Ni  Ni46  1  0.13783148  0.65801611  0.10769889  1.0
  Ni  Ni47  1  0.13783148  0.99134944  0.10769889  1.0
  Ni  Ni48  1  0.47116481  0.32468278  0.10769889  1.0
  Ni  Ni49  1  0.47116481  0.65801611  0.10769889  1.0
  Ni  Ni50  1  0.47116481  0.99134944  0.10769889  1.0
  Ni  Ni51  1  0.80449815  0.32468278  0.10769889  1.0
  Ni  Ni52  1  0.80449815  0.65801611  0.10769889  1.0
  Ni  Ni53  1  0.80449815  0.99134944  0.10769889  1.0
  Ni  Ni54  1  0.18550519  0.12341389  0.03301611  1.0
  Ni  Ni55  1  0.18550519  0.45674722  0.03301611  1.0
  Ni  Ni56  1  0.18550519  0.79008056  0.03301611  1.0
  Ni  Ni57  1  0.51883852  0.12341389  0.03301611  1.0
  Ni  Ni58  1  0.51883852  0.45674722  0.03301611  1.0
  Ni  Ni59  1  0.51883852  0.79008056  0.03301611  1.0
  Ni  Ni60  1  0.85217185  0.12341389  0.03301611  1.0
  Ni  Ni61  1  0.85217185  0.45674722  0.03301611  1.0
  Ni  Ni62  1  0.85217185  0.79008056  0.03301611  1.0
  Ni  Ni63  1  0.11143111  0.23452500  0.08857167  1.0
  Ni  Ni64  1  0.11143111  0.56785833  0.08857167  1.0
  Ni  Ni65  1  0.11143111  0.90119167  0.08857167  1.0
  Ni  Ni66  1  0.44476444  0.23452500  0.08857167  1.0
  Ni  Ni67  1  0.44476444  0.56785833  0.08857167  1.0
  Ni  Ni68  1  0.44476444  0.90119167  0.08857167  1.0
  Ni  Ni69  1  0.77809778  0.23452500  0.08857167  1.0
  Ni  Ni70  1  0.77809778  0.56785833  0.08857167  1.0
  Ni  Ni71  1  0.77809778  0.90119167  0.08857167  1.0
  Ni  Ni72  1  0.04735370  0.06420611  0.00341222  1.0
  Ni  Ni73  1  0.04735370  0.39753944  0.00341222  1.0
  Ni  Ni74  1  0.04735370  0.73087278  0.00341222  1.0
  Ni  Ni75  1  0.38068704  0.06420611  0.00341222  1.0
  Ni  Ni76  1  0.38068704  0.39753944  0.00341222  1.0
  Ni  Ni77  1  0.38068704  0.73087278  0.00341222  1.0
  Ni  Ni78  1  0.71402037  0.06420611  0.00341222  1.0
  Ni  Ni79  1  0.71402037  0.39753944  0.00341222  1.0
  Ni  Ni80  1  0.71402037  0.73087278  0.00341222  1.0
  Ni  Ni81  1  0.30661296  0.17531722  0.05896778  1.0
  Ni  Ni82  1  0.30661296  0.50865056  0.05896778  1.0
  Ni  Ni83  1  0.30661296  0.84198389  0.05896778  1.0
  Ni  Ni84  1  0.63994630  0.17531722  0.05896778  1.0
  Ni  Ni85  1  0.63994630  0.50865056  0.05896778  1.0
  Ni  Ni86  1  0.63994630  0.84198389  0.05896778  1.0
  Ni  Ni87  1  0.97327963  0.17531722  0.05896778  1.0
  Ni  Ni88  1  0.97327963  0.50865056  0.05896778  1.0
  Ni  Ni89  1  0.97327963  0.84198389  0.05896778  1.0
  Ni  Ni90  1  0.14270111  0.16166833  0.10404667  1.0
  Ni  Ni91  1  0.14270111  0.49500167  0.10404667  1.0
  Ni  Ni92  1  0.14270111  0.82833500  0.10404667  1.0
  Ni  Ni93  1  0.47603444  0.16166833  0.10404667  1.0
  Ni  Ni94  1  0.47603444  0.49500167  0.10404667  1.0
  Ni  Ni95  1  0.47603444  0.82833500  0.10404667  1.0
  Ni  Ni96  1  0.80936778  0.16166833  0.10404667  1.0
  Ni  Ni97  1  0.80936778  0.49500167  0.10404667  1.0
  Ni  Ni98  1  0.80936778  0.82833500  0.10404667  1.0
  Ni  Ni99  1  0.21677519  0.05055722  0.04849111  1.0
  Ni  Ni100  1  0.21677519  0.38389056  0.04849111  1.0
  Ni  Ni101  1  0.21677519  0.71722389  0.04849111  1.0
  Ni  Ni102  1  0.55010852  0.05055722  0.04849111  1.0
  Ni  Ni103  1  0.55010852  0.38389056  0.04849111  1.0
  Ni  Ni104  1  0.55010852  0.71722389  0.04849111  1.0
  Ni  Ni105  1  0.88344185  0.05055722  0.04849111  1.0
  Ni  Ni106  1  0.88344185  0.38389056  0.04849111  1.0
  Ni  Ni107  1  0.88344185  0.71722389  0.04849111  1.0
  Ni  Ni108  1  0.16333444  0.23452500  0.16642667  1.0
  Ni  Ni109  1  0.16333444  0.56785833  0.16642667  1.0
  Ni  Ni110  1  0.16333444  0.90119167  0.16642667  1.0
  Ni  Ni111  1  0.49666778  0.23452500  0.16642667  1.0
  Ni  Ni112  1  0.49666778  0.56785833  0.16642667  1.0
  Ni  Ni113  1  0.49666778  0.90119167  0.16642667  1.0
  Ni  Ni114  1  0.83000111  0.23452500  0.16642667  1.0
  Ni  Ni115  1  0.83000111  0.56785833  0.16642667  1.0
  Ni  Ni116  1  0.83000111  0.90119167  0.16642667  1.0
  Ni  Ni117  1  0.08926037  0.01230278  0.22198222  1.0
  Ni  Ni118  1  0.08926037  0.34563611  0.22198222  1.0
  Ni  Ni119  1  0.08926037  0.67896944  0.22198222  1.0
  Ni  Ni120  1  0.42259370  0.01230278  0.22198222  1.0
  Ni  Ni121  1  0.42259370  0.34563611  0.22198222  1.0
  Ni  Ni122  1  0.42259370  0.67896944  0.22198222  1.0
  Ni  Ni123  1  0.75592704  0.01230278  0.22198222  1.0
  Ni  Ni124  1  0.75592704  0.34563611  0.22198222  1.0
  Ni  Ni125  1  0.75592704  0.67896944  0.22198222  1.0
  Ni  Ni126  1  0.18973481  0.32468278  0.18555389  1.0
  Ni  Ni127  1  0.18973481  0.65801611  0.18555389  1.0
  Ni  Ni128  1  0.18973481  0.99134944  0.18555389  1.0
  Ni  Ni129  1  0.52306815  0.32468278  0.18555389  1.0
  Ni  Ni130  1  0.52306815  0.65801611  0.18555389  1.0
  Ni  Ni131  1  0.52306815  0.99134944  0.18555389  1.0
  Ni  Ni132  1  0.85640148  0.32468278  0.18555389  1.0
  Ni  Ni133  1  0.85640148  0.65801611  0.18555389  1.0
  Ni  Ni134  1  0.85640148  0.99134944  0.18555389  1.0
  Ni  Ni135  1  0.26380889  0.21357167  0.12999833  1.0
  Ni  Ni136  1  0.26380889  0.54690500  0.12999833  1.0
  Ni  Ni137  1  0.26380889  0.88023833  0.12999833  1.0
  Ni  Ni138  1  0.59714222  0.21357167  0.12999833  1.0
  Ni  Ni139  1  0.59714222  0.54690500  0.12999833  1.0
  Ni  Ni140  1  0.59714222  0.88023833  0.12999833  1.0
  Ni  Ni141  1  0.93047556  0.21357167  0.12999833  1.0
  Ni  Ni142  1  0.93047556  0.54690500  0.12999833  1.0
  Ni  Ni143  1  0.93047556  0.88023833  0.12999833  1.0
  Ni  Ni144  1  0.06375741  0.10246056  0.16325444  1.0
  Ni  Ni145  1  0.06375741  0.43579389  0.16325444  1.0
  Ni  Ni146  1  0.06375741  0.76912722  0.16325444  1.0
  Ni  Ni147  1  0.39709074  0.10246056  0.16325444  1.0
  Ni  Ni148  1  0.39709074  0.43579389  0.16325444  1.0
  Ni  Ni149  1  0.39709074  0.76912722  0.16325444  1.0
  Ni  Ni150  1  0.73042407  0.10246056  0.16325444  1.0
  Ni  Ni151  1  0.73042407  0.43579389  0.16325444  1.0
  Ni  Ni152  1  0.73042407  0.76912722  0.16325444  1.0
  Ni  Ni153  1  0.32301667  0.21357167  0.21881000  1.0
  Ni  Ni154  1  0.32301667  0.54690500  0.21881000  1.0
  Ni  Ni155  1  0.32301667  0.88023833  0.21881000  1.0
  Ni  Ni156  1  0.65635000  0.21357167  0.21881000  1.0
  Ni  Ni157  1  0.65635000  0.54690500  0.21881000  1.0
  Ni  Ni158  1  0.65635000  0.88023833  0.21881000  1.0
  Ni  Ni159  1  0.98968333  0.21357167  0.21881000  1.0
  Ni  Ni160  1  0.98968333  0.54690500  0.21881000  1.0
  Ni  Ni161  1  0.98968333  0.88023833  0.21881000  1.0
  Ni  Ni162  1  0.03735704  0.01230278  0.14412722  1.0
  Ni  Ni163  1  0.03735704  0.34563611  0.14412722  1.0
  Ni  Ni164  1  0.03735704  0.67896944  0.14412722  1.0
  Ni  Ni165  1  0.37069037  0.01230278  0.14412722  1.0
  Ni  Ni166  1  0.37069037  0.34563611  0.14412722  1.0
  Ni  Ni167  1  0.37069037  0.67896944  0.14412722  1.0
  Ni  Ni168  1  0.70402370  0.01230278  0.14412722  1.0
  Ni  Ni169  1  0.70402370  0.34563611  0.14412722  1.0
  Ni  Ni170  1  0.70402370  0.67896944  0.14412722  1.0
  Ni  Ni171  1  0.29661630  0.12341389  0.19968278  1.0
  Ni  Ni172  1  0.29661630  0.45674722  0.19968278  1.0
  Ni  Ni173  1  0.29661630  0.79008056  0.19968278  1.0
  Ni  Ni174  1  0.62994963  0.12341389  0.19968278  1.0
  Ni  Ni175  1  0.62994963  0.45674722  0.19968278  1.0
  Ni  Ni176  1  0.62994963  0.79008056  0.19968278  1.0
  Ni  Ni177  1  0.96328296  0.12341389  0.19968278  1.0
  Ni  Ni178  1  0.96328296  0.45674722  0.19968278  1.0
  Ni  Ni179  1  0.96328296  0.79008056  0.19968278  1.0
  Ni  Ni180  1  0.23253889  0.28642833  0.11452333  1.0
  Ni  Ni181  1  0.23253889  0.61976167  0.11452333  1.0
  Ni  Ni182  1  0.23253889  0.95309500  0.11452333  1.0
  Ni  Ni183  1  0.56587222  0.28642833  0.11452333  1.0
  Ni  Ni184  1  0.56587222  0.61976167  0.11452333  1.0
  Ni  Ni185  1  0.56587222  0.95309500  0.11452333  1.0
  Ni  Ni186  1  0.89920556  0.28642833  0.11452333  1.0
  Ni  Ni187  1  0.89920556  0.61976167  0.11452333  1.0
  Ni  Ni188  1  0.89920556  0.95309500  0.11452333  1.0
  Ni  Ni189  1  0.15846481  0.06420611  0.17007889  1.0
  Ni  Ni190  1  0.15846481  0.39753944  0.17007889  1.0
  Ni  Ni191  1  0.15846481  0.73087278  0.17007889  1.0
  Ni  Ni192  1  0.49179815  0.06420611  0.17007889  1.0
  Ni  Ni193  1  0.49179815  0.39753944  0.17007889  1.0
  Ni  Ni194  1  0.49179815  0.73087278  0.17007889  1.0
  Ni  Ni195  1  0.82513148  0.06420611  0.17007889  1.0
  Ni  Ni196  1  0.82513148  0.39753944  0.17007889  1.0
  Ni  Ni197  1  0.82513148  0.73087278  0.17007889  1.0
  Ni  Ni198  1  0.32788630  0.05055722  0.21515778  1.0
  Ni  Ni199  1  0.32788630  0.38389056  0.21515778  1.0
  Ni  Ni200  1  0.32788630  0.71722389  0.21515778  1.0
  Ni  Ni201  1  0.66121963  0.05055722  0.21515778  1.0
  Ni  Ni202  1  0.66121963  0.38389056  0.21515778  1.0
  Ni  Ni203  1  0.66121963  0.71722389  0.21515778  1.0
  Ni  Ni204  1  0.99455296  0.05055722  0.21515778  1.0
  Ni  Ni205  1  0.99455296  0.38389056  0.21515778  1.0
  Ni  Ni206  1  0.99455296  0.71722389  0.21515778  1.0
  Ni  Ni207  1  0.06862704  0.27277944  0.15960222  1.0
  Ni  Ni208  1  0.06862704  0.60611278  0.15960222  1.0
  Ni  Ni209  1  0.06862704  0.93944611  0.15960222  1.0
  Ni  Ni210  1  0.40196037  0.27277944  0.15960222  1.0
  Ni  Ni211  1  0.40196037  0.60611278  0.15960222  1.0
  Ni  Ni212  1  0.40196037  0.93944611  0.15960222  1.0
  Ni  Ni213  1  0.73529370  0.27277944  0.15960222  1.0
  Ni  Ni214  1  0.73529370  0.60611278  0.15960222  1.0
  Ni  Ni215  1  0.73529370  0.93944611  0.15960222  1.0
  Ni  Ni216  1  0.01518630  0.12341389  0.27753778  1.0
  Ni  Ni217  1  0.01518630  0.45674722  0.27753778  1.0
  Ni  Ni218  1  0.01518630  0.79008056  0.27753778  1.0
  Ni  Ni219  1  0.34851963  0.12341389  0.27753778  1.0
  Ni  Ni220  1  0.34851963  0.45674722  0.27753778  1.0
  Ni  Ni221  1  0.34851963  0.79008056  0.27753778  1.0
  Ni  Ni222  1  0.68185296  0.12341389  0.27753778  1.0
  Ni  Ni223  1  0.68185296  0.45674722  0.27753778  1.0
  Ni  Ni224  1  0.68185296  0.79008056  0.27753778  1.0
  Ni  Ni225  1  0.27444556  0.23452500  0.33309333  1.0
  Ni  Ni226  1  0.27444556  0.56785833  0.33309333  1.0
  Ni  Ni227  1  0.27444556  0.90119167  0.33309333  1.0
  Ni  Ni228  1  0.60777889  0.23452500  0.33309333  1.0
  Ni  Ni229  1  0.60777889  0.56785833  0.33309333  1.0
  Ni  Ni230  1  0.60777889  0.90119167  0.33309333  1.0
  Ni  Ni231  1  0.94111222  0.23452500  0.33309333  1.0
  Ni  Ni232  1  0.94111222  0.56785833  0.33309333  1.0
  Ni  Ni233  1  0.94111222  0.90119167  0.33309333  1.0
  Ni  Ni234  1  0.04158667  0.21357167  0.29666500  1.0
  Ni  Ni235  1  0.04158667  0.54690500  0.29666500  1.0
  Ni  Ni236  1  0.04158667  0.88023833  0.29666500  1.0
  Ni  Ni237  1  0.37492000  0.21357167  0.29666500  1.0
  Ni  Ni238  1  0.37492000  0.54690500  0.29666500  1.0
  Ni  Ni239  1  0.37492000  0.88023833  0.29666500  1.0
  Ni  Ni240  1  0.70825333  0.21357167  0.29666500  1.0
  Ni  Ni241  1  0.70825333  0.54690500  0.29666500  1.0
  Ni  Ni242  1  0.70825333  0.88023833  0.29666500  1.0
  Ni  Ni243  1  0.11566074  0.10246056  0.24110944  1.0
  Ni  Ni244  1  0.11566074  0.43579389  0.24110944  1.0
  Ni  Ni245  1  0.11566074  0.76912722  0.24110944  1.0
  Ni  Ni246  1  0.44899407  0.10246056  0.24110944  1.0
  Ni  Ni247  1  0.44899407  0.43579389  0.24110944  1.0
  Ni  Ni248  1  0.44899407  0.76912722  0.24110944  1.0
  Ni  Ni249  1  0.78232741  0.10246056  0.24110944  1.0
  Ni  Ni250  1  0.78232741  0.43579389  0.24110944  1.0
  Ni  Ni251  1  0.78232741  0.76912722  0.24110944  1.0
  Ni  Ni252  1  0.24894259  0.32468278  0.27436556  1.0
  Ni  Ni253  1  0.24894259  0.65801611  0.27436556  1.0
  Ni  Ni254  1  0.24894259  0.99134944  0.27436556  1.0
  Ni  Ni255  1  0.58227593  0.32468278  0.27436556  1.0
  Ni  Ni256  1  0.58227593  0.65801611  0.27436556  1.0
  Ni  Ni257  1  0.58227593  0.99134944  0.27436556  1.0
  Ni  Ni258  1  0.91560926  0.32468278  0.27436556  1.0
  Ni  Ni259  1  0.91560926  0.65801611  0.27436556  1.0
  Ni  Ni260  1  0.91560926  0.99134944  0.27436556  1.0
  Ni  Ni261  1  0.17486852  0.10246056  0.32992111  1.0
  Ni  Ni262  1  0.17486852  0.43579389  0.32992111  1.0
  Ni  Ni263  1  0.17486852  0.76912722  0.32992111  1.0
  Ni  Ni264  1  0.50820185  0.10246056  0.32992111  1.0
  Ni  Ni265  1  0.50820185  0.43579389  0.32992111  1.0
  Ni  Ni266  1  0.50820185  0.76912722  0.32992111  1.0
  Ni  Ni267  1  0.84153519  0.10246056  0.32992111  1.0
  Ni  Ni268  1  0.84153519  0.43579389  0.32992111  1.0
  Ni  Ni269  1  0.84153519  0.76912722  0.32992111  1.0
  Ni  Ni270  1  0.22254222  0.23452500  0.25523833  1.0
  Ni  Ni271  1  0.22254222  0.56785833  0.25523833  1.0
  Ni  Ni272  1  0.22254222  0.90119167  0.25523833  1.0
  Ni  Ni273  1  0.55587556  0.23452500  0.25523833  1.0
  Ni  Ni274  1  0.55587556  0.56785833  0.25523833  1.0
  Ni  Ni275  1  0.55587556  0.90119167  0.25523833  1.0
  Ni  Ni276  1  0.88920889  0.23452500  0.25523833  1.0
  Ni  Ni277  1  0.88920889  0.56785833  0.25523833  1.0
  Ni  Ni278  1  0.88920889  0.90119167  0.25523833  1.0
  Ni  Ni279  1  0.14846815  0.01230278  0.31079389  1.0
  Ni  Ni280  1  0.14846815  0.34563611  0.31079389  1.0
  Ni  Ni281  1  0.14846815  0.67896944  0.31079389  1.0
  Ni  Ni282  1  0.48180148  0.01230278  0.31079389  1.0
  Ni  Ni283  1  0.48180148  0.34563611  0.31079389  1.0
  Ni  Ni284  1  0.48180148  0.67896944  0.31079389  1.0
  Ni  Ni285  1  0.81513481  0.01230278  0.31079389  1.0
  Ni  Ni286  1  0.81513481  0.34563611  0.31079389  1.0
  Ni  Ni287  1  0.81513481  0.67896944  0.31079389  1.0
  Ni  Ni288  1  0.08439074  0.17531722  0.22563444  1.0
  Ni  Ni289  1  0.08439074  0.50865056  0.22563444  1.0
  Ni  Ni290  1  0.08439074  0.84198389  0.22563444  1.0
  Ni  Ni291  1  0.41772407  0.17531722  0.22563444  1.0
  Ni  Ni292  1  0.41772407  0.50865056  0.22563444  1.0
  Ni  Ni293  1  0.41772407  0.84198389  0.22563444  1.0
  Ni  Ni294  1  0.75105741  0.17531722  0.22563444  1.0
  Ni  Ni295  1  0.75105741  0.50865056  0.22563444  1.0
  Ni  Ni296  1  0.75105741  0.84198389  0.22563444  1.0
  Ni  Ni297  1  0.01031667  0.28642833  0.28119000  1.0
  Ni  Ni298  1  0.01031667  0.61976167  0.28119000  1.0
  Ni  Ni299  1  0.01031667  0.95309500  0.28119000  1.0
  Ni  Ni300  1  0.34365000  0.28642833  0.28119000  1.0
  Ni  Ni301  1  0.34365000  0.61976167  0.28119000  1.0
  Ni  Ni302  1  0.34365000  0.95309500  0.28119000  1.0
  Ni  Ni303  1  0.67698333  0.28642833  0.28119000  1.0
  Ni  Ni304  1  0.67698333  0.61976167  0.28119000  1.0
  Ni  Ni305  1  0.67698333  0.95309500  0.28119000  1.0
  Ni  Ni306  1  0.17973815  0.27277944  0.32626889  1.0
  Ni  Ni307  1  0.17973815  0.60611278  0.32626889  1.0
  Ni  Ni308  1  0.17973815  0.93944611  0.32626889  1.0
  Ni  Ni309  1  0.51307148  0.27277944  0.32626889  1.0
  Ni  Ni310  1  0.51307148  0.60611278  0.32626889  1.0
  Ni  Ni311  1  0.51307148  0.93944611  0.32626889  1.0
  Ni  Ni312  1  0.84640481  0.27277944  0.32626889  1.0
  Ni  Ni313  1  0.84640481  0.60611278  0.32626889  1.0
  Ni  Ni314  1  0.84640481  0.93944611  0.32626889  1.0
  Ni  Ni315  1  0.25381222  0.16166833  0.27071333  1.0
  Ni  Ni316  1  0.25381222  0.49500167  0.27071333  1.0
  Ni  Ni317  1  0.25381222  0.82833500  0.27071333  1.0
  Ni  Ni318  1  0.58714556  0.16166833  0.27071333  1.0
  Ni  Ni319  1  0.58714556  0.49500167  0.27071333  1.0
  Ni  Ni320  1  0.58714556  0.82833500  0.27071333  1.0
  Ni  Ni321  1  0.92047889  0.16166833  0.27071333  1.0
  Ni  Ni322  1  0.92047889  0.49500167  0.27071333  1.0
  Ni  Ni323  1  0.92047889  0.82833500  0.27071333  1.0
  Ni  Ni324  1  0.20037148  0.01230278  0.38864889  1.0
  Ni  Ni325  1  0.20037148  0.34563611  0.38864889  1.0
  Ni  Ni326  1  0.20037148  0.67896944  0.38864889  1.0
  Ni  Ni327  1  0.53370481  0.01230278  0.38864889  1.0
  Ni  Ni328  1  0.53370481  0.34563611  0.38864889  1.0
  Ni  Ni329  1  0.53370481  0.67896944  0.38864889  1.0
  Ni  Ni330  1  0.86703815  0.01230278  0.38864889  1.0
  Ni  Ni331  1  0.86703815  0.34563611  0.38864889  1.0
  Ni  Ni332  1  0.86703815  0.67896944  0.38864889  1.0
  Ni  Ni333  1  0.12629741  0.12341389  0.44420444  1.0
  Ni  Ni334  1  0.12629741  0.45674722  0.44420444  1.0
  Ni  Ni335  1  0.12629741  0.79008056  0.44420444  1.0
  Ni  Ni336  1  0.45963074  0.12341389  0.44420444  1.0
  Ni  Ni337  1  0.45963074  0.45674722  0.44420444  1.0
  Ni  Ni338  1  0.45963074  0.79008056  0.44420444  1.0
  Ni  Ni339  1  0.79296407  0.12341389  0.44420444  1.0
  Ni  Ni340  1  0.79296407  0.45674722  0.44420444  1.0
  Ni  Ni341  1  0.79296407  0.79008056  0.44420444  1.0
  Ni  Ni342  1  0.22677185  0.10246056  0.40777611  1.0
  Ni  Ni343  1  0.22677185  0.43579389  0.40777611  1.0
  Ni  Ni344  1  0.22677185  0.76912722  0.40777611  1.0
  Ni  Ni345  1  0.56010519  0.10246056  0.40777611  1.0
  Ni  Ni346  1  0.56010519  0.43579389  0.40777611  1.0
  Ni  Ni347  1  0.56010519  0.76912722  0.40777611  1.0
  Ni  Ni348  1  0.89343852  0.10246056  0.40777611  1.0
  Ni  Ni349  1  0.89343852  0.43579389  0.40777611  1.0
  Ni  Ni350  1  0.89343852  0.76912722  0.40777611  1.0
  Ni  Ni351  1  0.30084593  0.32468278  0.35222056  1.0
  Ni  Ni352  1  0.30084593  0.65801611  0.35222056  1.0
  Ni  Ni353  1  0.30084593  0.99134944  0.35222056  1.0
  Ni  Ni354  1  0.63417926  0.32468278  0.35222056  1.0
  Ni  Ni355  1  0.63417926  0.65801611  0.35222056  1.0
  Ni  Ni356  1  0.63417926  0.99134944  0.35222056  1.0
  Ni  Ni357  1  0.96751259  0.32468278  0.35222056  1.0
  Ni  Ni358  1  0.96751259  0.65801611  0.35222056  1.0
  Ni  Ni359  1  0.96751259  0.99134944  0.35222056  1.0
  Ni  Ni360  1  0.10079444  0.21357167  0.38547667  1.0
  Ni  Ni361  1  0.10079444  0.54690500  0.38547667  1.0
  Ni  Ni362  1  0.10079444  0.88023833  0.38547667  1.0
  Ni  Ni363  1  0.43412778  0.21357167  0.38547667  1.0
  Ni  Ni364  1  0.43412778  0.54690500  0.38547667  1.0
  Ni  Ni365  1  0.43412778  0.88023833  0.38547667  1.0
  Ni  Ni366  1  0.76746111  0.21357167  0.38547667  1.0
  Ni  Ni367  1  0.76746111  0.54690500  0.38547667  1.0
  Ni  Ni368  1  0.76746111  0.88023833  0.38547667  1.0
  Ni  Ni369  1  0.02672037  0.32468278  0.44103222  1.0
  Ni  Ni370  1  0.02672037  0.65801611  0.44103222  1.0
  Ni  Ni371  1  0.02672037  0.99134944  0.44103222  1.0
  Ni  Ni372  1  0.36005370  0.32468278  0.44103222  1.0
  Ni  Ni373  1  0.36005370  0.65801611  0.44103222  1.0
  Ni  Ni374  1  0.36005370  0.99134944  0.44103222  1.0
  Ni  Ni375  1  0.69338704  0.32468278  0.44103222  1.0
  Ni  Ni376  1  0.69338704  0.65801611  0.44103222  1.0
  Ni  Ni377  1  0.69338704  0.99134944  0.44103222  1.0
  Ni  Ni378  1  0.07439407  0.12341389  0.36634944  1.0
  Ni  Ni379  1  0.07439407  0.45674722  0.36634944  1.0
  Ni  Ni380  1  0.07439407  0.79008056  0.36634944  1.0
  Ni  Ni381  1  0.40772741  0.12341389  0.36634944  1.0
  Ni  Ni382  1  0.40772741  0.45674722  0.36634944  1.0
  Ni  Ni383  1  0.40772741  0.79008056  0.36634944  1.0
  Ni  Ni384  1  0.74106074  0.12341389  0.36634944  1.0
  Ni  Ni385  1  0.74106074  0.45674722  0.36634944  1.0
  Ni  Ni386  1  0.74106074  0.79008056  0.36634944  1.0
  Ni  Ni387  1  0.00032000  0.23452500  0.42190500  1.0
  Ni  Ni388  1  0.00032000  0.56785833  0.42190500  1.0
  Ni  Ni389  1  0.00032000  0.90119167  0.42190500  1.0
  Ni  Ni390  1  0.33365333  0.23452500  0.42190500  1.0
  Ni  Ni391  1  0.33365333  0.56785833  0.42190500  1.0
  Ni  Ni392  1  0.33365333  0.90119167  0.42190500  1.0
  Ni  Ni393  1  0.66698667  0.23452500  0.42190500  1.0
  Ni  Ni394  1  0.66698667  0.56785833  0.42190500  1.0
  Ni  Ni395  1  0.66698667  0.90119167  0.42190500  1.0
  Ni  Ni396  1  0.26957593  0.06420611  0.33674556  1.0
  Ni  Ni397  1  0.26957593  0.39753944  0.33674556  1.0
  Ni  Ni398  1  0.26957593  0.73087278  0.33674556  1.0
  Ni  Ni399  1  0.60290926  0.06420611  0.33674556  1.0
  Ni  Ni400  1  0.60290926  0.39753944  0.33674556  1.0
  Ni  Ni401  1  0.60290926  0.73087278  0.33674556  1.0
  Ni  Ni402  1  0.93624259  0.06420611  0.33674556  1.0
  Ni  Ni403  1  0.93624259  0.39753944  0.33674556  1.0
  Ni  Ni404  1  0.93624259  0.73087278  0.33674556  1.0
  Ni  Ni405  1  0.19550185  0.17531722  0.39230111  1.0
  Ni  Ni406  1  0.19550185  0.50865056  0.39230111  1.0
  Ni  Ni407  1  0.19550185  0.84198389  0.39230111  1.0
  Ni  Ni408  1  0.52883519  0.17531722  0.39230111  1.0
  Ni  Ni409  1  0.52883519  0.50865056  0.39230111  1.0
  Ni  Ni410  1  0.52883519  0.84198389  0.39230111  1.0
  Ni  Ni411  1  0.86216852  0.17531722  0.39230111  1.0
  Ni  Ni412  1  0.86216852  0.50865056  0.39230111  1.0
  Ni  Ni413  1  0.86216852  0.84198389  0.39230111  1.0
  Ni  Ni414  1  0.03159000  0.16166833  0.43738000  1.0
  Ni  Ni415  1  0.03159000  0.49500167  0.43738000  1.0
  Ni  Ni416  1  0.03159000  0.82833500  0.43738000  1.0
  Ni  Ni417  1  0.36492333  0.16166833  0.43738000  1.0
  Ni  Ni418  1  0.36492333  0.49500167  0.43738000  1.0
  Ni  Ni419  1  0.36492333  0.82833500  0.43738000  1.0
  Ni  Ni420  1  0.69825667  0.16166833  0.43738000  1.0
  Ni  Ni421  1  0.69825667  0.49500167  0.43738000  1.0
  Ni  Ni422  1  0.69825667  0.82833500  0.43738000  1.0
  Ni  Ni423  1  0.10566407  0.05055722  0.38182444  1.0
  Ni  Ni424  1  0.10566407  0.38389056  0.38182444  1.0
  Ni  Ni425  1  0.10566407  0.71722389  0.38182444  1.0
  Ni  Ni426  1  0.43899741  0.05055722  0.38182444  1.0
  Ni  Ni427  1  0.43899741  0.38389056  0.38182444  1.0
  Ni  Ni428  1  0.43899741  0.71722389  0.38182444  1.0
  Ni  Ni429  1  0.77233074  0.05055722  0.38182444  1.0
  Ni  Ni430  1  0.77233074  0.38389056  0.38182444  1.0
  Ni  Ni431  1  0.77233074  0.71722389  0.38182444  1.0
  Zr  Zr432  1  0.10737309  0.06664093  0.08613685  1.0
  Zr  Zr433  1  0.10737309  0.39997426  0.08613685  1.0
  Zr  Zr434  1  0.10737309  0.73330759  0.08613685  1.0
  Zr  Zr435  1  0.44070642  0.06664093  0.08613685  1.0
  Zr  Zr436  1  0.44070642  0.39997426  0.08613685  1.0
  Zr  Zr437  1  0.44070642  0.73330759  0.08613685  1.0
  Zr  Zr438  1  0.77403975  0.06664093  0.08613685  1.0
  Zr  Zr439  1  0.77403975  0.39997426  0.08613685  1.0
  Zr  Zr440  1  0.77403975  0.73330759  0.08613685  1.0
  Zr  Zr441  1  0.18144716  0.28886315  0.03058130  1.0
  Zr  Zr442  1  0.18144716  0.62219648  0.03058130  1.0
  Zr  Zr443  1  0.18144716  0.95552981  0.03058130  1.0
  Zr  Zr444  1  0.51478049  0.28886315  0.03058130  1.0
  Zr  Zr445  1  0.51478049  0.62219648  0.03058130  1.0
  Zr  Zr446  1  0.51478049  0.95552981  0.03058130  1.0
  Zr  Zr447  1  0.84811383  0.28886315  0.03058130  1.0
  Zr  Zr448  1  0.84811383  0.62219648  0.03058130  1.0
  Zr  Zr449  1  0.84811383  0.95552981  0.03058130  1.0
  Zr  Zr450  1  0.08268173  0.15923352  0.02132204  1.0
  Zr  Zr451  1  0.08268173  0.49256685  0.02132204  1.0
  Zr  Zr452  1  0.08268173  0.82590019  0.02132204  1.0
  Zr  Zr453  1  0.41601506  0.15923352  0.02132204  1.0
  Zr  Zr454  1  0.41601506  0.49256685  0.02132204  1.0
  Zr  Zr455  1  0.41601506  0.82590019  0.02132204  1.0
  Zr  Zr456  1  0.74934840  0.15923352  0.02132204  1.0
  Zr  Zr457  1  0.74934840  0.49256685  0.02132204  1.0
  Zr  Zr458  1  0.74934840  0.82590019  0.02132204  1.0
  Zr  Zr459  1  0.00860765  0.27034463  0.07687759  1.0
  Zr  Zr460  1  0.00860765  0.60367796  0.07687759  1.0
  Zr  Zr461  1  0.00860765  0.93701130  0.07687759  1.0
  Zr  Zr462  1  0.34194099  0.27034463  0.07687759  1.0
  Zr  Zr463  1  0.34194099  0.60367796  0.07687759  1.0
  Zr  Zr464  1  0.34194099  0.93701130  0.07687759  1.0
  Zr  Zr465  1  0.67527432  0.27034463  0.07687759  1.0
  Zr  Zr466  1  0.67527432  0.60367796  0.07687759  1.0
  Zr  Zr467  1  0.67527432  0.93701130  0.07687759  1.0
  Zr  Zr468  1  0.29255827  0.28886315  0.19724796  1.0
  Zr  Zr469  1  0.29255827  0.62219648  0.19724796  1.0
  Zr  Zr470  1  0.29255827  0.95552981  0.19724796  1.0
  Zr  Zr471  1  0.62589160  0.28886315  0.19724796  1.0
  Zr  Zr472  1  0.62589160  0.62219648  0.19724796  1.0
  Zr  Zr473  1  0.62589160  0.95552981  0.19724796  1.0
  Zr  Zr474  1  0.95922494  0.28886315  0.19724796  1.0
  Zr  Zr475  1  0.95922494  0.62219648  0.19724796  1.0
  Zr  Zr476  1  0.95922494  0.95552981  0.19724796  1.0
  Zr  Zr477  1  0.03329901  0.17775204  0.14169241  1.0
  Zr  Zr478  1  0.03329901  0.51108537  0.14169241  1.0
  Zr  Zr479  1  0.03329901  0.84441870  0.14169241  1.0
  Zr  Zr480  1  0.36663235  0.17775204  0.14169241  1.0
  Zr  Zr481  1  0.36663235  0.51108537  0.14169241  1.0
  Zr  Zr482  1  0.36663235  0.84441870  0.14169241  1.0
  Zr  Zr483  1  0.69996568  0.17775204  0.14169241  1.0
  Zr  Zr484  1  0.69996568  0.51108537  0.14169241  1.0
  Zr  Zr485  1  0.69996568  0.84441870  0.14169241  1.0
  Zr  Zr486  1  0.26786691  0.04812241  0.13243315  1.0
  Zr  Zr487  1  0.26786691  0.38145574  0.13243315  1.0
  Zr  Zr488  1  0.26786691  0.71478907  0.13243315  1.0
  Zr  Zr489  1  0.60120025  0.04812241  0.13243315  1.0
  Zr  Zr490  1  0.60120025  0.38145574  0.13243315  1.0
  Zr  Zr491  1  0.60120025  0.71478907  0.13243315  1.0
  Zr  Zr492  1  0.93453358  0.04812241  0.13243315  1.0
  Zr  Zr493  1  0.93453358  0.38145574  0.13243315  1.0
  Zr  Zr494  1  0.93453358  0.71478907  0.13243315  1.0
  Zr  Zr495  1  0.19379284  0.15923352  0.18798870  1.0
  Zr  Zr496  1  0.19379284  0.49256685  0.18798870  1.0
  Zr  Zr497  1  0.19379284  0.82590019  0.18798870  1.0
  Zr  Zr498  1  0.52712617  0.15923352  0.18798870  1.0
  Zr  Zr499  1  0.52712617  0.49256685  0.18798870  1.0
  Zr  Zr500  1  0.52712617  0.82590019  0.18798870  1.0
  Zr  Zr501  1  0.86045951  0.15923352  0.18798870  1.0
  Zr  Zr502  1  0.86045951  0.49256685  0.18798870  1.0
  Zr  Zr503  1  0.86045951  0.82590019  0.18798870  1.0
  Zr  Zr504  1  0.14441012  0.17775204  0.30835907  1.0
  Zr  Zr505  1  0.14441012  0.51108537  0.30835907  1.0
  Zr  Zr506  1  0.14441012  0.84441870  0.30835907  1.0
  Zr  Zr507  1  0.47774346  0.17775204  0.30835907  1.0
  Zr  Zr508  1  0.47774346  0.51108537  0.30835907  1.0
  Zr  Zr509  1  0.47774346  0.84441870  0.30835907  1.0
  Zr  Zr510  1  0.81107679  0.17775204  0.30835907  1.0
  Zr  Zr511  1  0.81107679  0.51108537  0.30835907  1.0
  Zr  Zr512  1  0.81107679  0.84441870  0.30835907  1.0
  Zr  Zr513  1  0.21848420  0.06664093  0.25280352  1.0
  Zr  Zr514  1  0.21848420  0.39997426  0.25280352  1.0
  Zr  Zr515  1  0.21848420  0.73330759  0.25280352  1.0
  Zr  Zr516  1  0.55181753  0.06664093  0.25280352  1.0
  Zr  Zr517  1  0.55181753  0.39997426  0.25280352  1.0
  Zr  Zr518  1  0.55181753  0.73330759  0.25280352  1.0
  Zr  Zr519  1  0.88515086  0.06664093  0.25280352  1.0
  Zr  Zr520  1  0.88515086  0.39997426  0.25280352  1.0
  Zr  Zr521  1  0.88515086  0.73330759  0.25280352  1.0
  Zr  Zr522  1  0.11971877  0.27034463  0.24354426  1.0
  Zr  Zr523  1  0.11971877  0.60367796  0.24354426  1.0
  Zr  Zr524  1  0.11971877  0.93701130  0.24354426  1.0
  Zr  Zr525  1  0.45305210  0.27034463  0.24354426  1.0
  Zr  Zr526  1  0.45305210  0.60367796  0.24354426  1.0
  Zr  Zr527  1  0.45305210  0.93701130  0.24354426  1.0
  Zr  Zr528  1  0.78638543  0.27034463  0.24354426  1.0
  Zr  Zr529  1  0.78638543  0.60367796  0.24354426  1.0
  Zr  Zr530  1  0.78638543  0.93701130  0.24354426  1.0
  Zr  Zr531  1  0.04564469  0.04812241  0.29909981  1.0
  Zr  Zr532  1  0.04564469  0.38145574  0.29909981  1.0
  Zr  Zr533  1  0.04564469  0.71478907  0.29909981  1.0
  Zr  Zr534  1  0.37897802  0.04812241  0.29909981  1.0
  Zr  Zr535  1  0.37897802  0.38145574  0.29909981  1.0
  Zr  Zr536  1  0.37897802  0.71478907  0.29909981  1.0
  Zr  Zr537  1  0.71231136  0.04812241  0.29909981  1.0
  Zr  Zr538  1  0.71231136  0.38145574  0.29909981  1.0
  Zr  Zr539  1  0.71231136  0.71478907  0.29909981  1.0
  Zr  Zr540  1  0.32959531  0.06664093  0.41947019  1.0
  Zr  Zr541  1  0.32959531  0.39997426  0.41947019  1.0
  Zr  Zr542  1  0.32959531  0.73330759  0.41947019  1.0
  Zr  Zr543  1  0.66292864  0.06664093  0.41947019  1.0
  Zr  Zr544  1  0.66292864  0.39997426  0.41947019  1.0
  Zr  Zr545  1  0.66292864  0.73330759  0.41947019  1.0
  Zr  Zr546  1  0.99626198  0.06664093  0.41947019  1.0
  Zr  Zr547  1  0.99626198  0.39997426  0.41947019  1.0
  Zr  Zr548  1  0.99626198  0.73330759  0.41947019  1.0
  Zr  Zr549  1  0.07033605  0.28886315  0.36391463  1.0
  Zr  Zr550  1  0.07033605  0.62219648  0.36391463  1.0
  Zr  Zr551  1  0.07033605  0.95552981  0.36391463  1.0
  Zr  Zr552  1  0.40366938  0.28886315  0.36391463  1.0
  Zr  Zr553  1  0.40366938  0.62219648  0.36391463  1.0
  Zr  Zr554  1  0.40366938  0.95552981  0.36391463  1.0
  Zr  Zr555  1  0.73700272  0.28886315  0.36391463  1.0
  Zr  Zr556  1  0.73700272  0.62219648  0.36391463  1.0
  Zr  Zr557  1  0.73700272  0.95552981  0.36391463  1.0
  Zr  Zr558  1  0.30490395  0.15923352  0.35465537  1.0
  Zr  Zr559  1  0.30490395  0.49256685  0.35465537  1.0
  Zr  Zr560  1  0.30490395  0.82590019  0.35465537  1.0
  Zr  Zr561  1  0.63823728  0.15923352  0.35465537  1.0
  Zr  Zr562  1  0.63823728  0.49256685  0.35465537  1.0
  Zr  Zr563  1  0.63823728  0.82590019  0.35465537  1.0
  Zr  Zr564  1  0.97157062  0.15923352  0.35465537  1.0
  Zr  Zr565  1  0.97157062  0.49256685  0.35465537  1.0
  Zr  Zr566  1  0.97157062  0.82590019  0.35465537  1.0
  Zr  Zr567  1  0.23082988  0.27034463  0.41021093  1.0
  Zr  Zr568  1  0.23082988  0.60367796  0.41021093  1.0
  Zr  Zr569  1  0.23082988  0.93701130  0.41021093  1.0
  Zr  Zr570  1  0.56416321  0.27034463  0.41021093  1.0
  Zr  Zr571  1  0.56416321  0.60367796  0.41021093  1.0
  Zr  Zr572  1  0.56416321  0.93701130  0.41021093  1.0
  Zr  Zr573  1  0.89749654  0.27034463  0.41021093  1.0
  Zr  Zr574  1  0.89749654  0.60367796  0.41021093  1.0
  Zr  Zr575  1  0.89749654  0.93701130  0.41021093  1.0
