# generated using pymatgen
data_ZrNi3
_symmetry_space_group_name_H-M   'P 1'
_cell_length_a   12.91555800
_cell_length_b   27.62086402
_cell_length_c   53.15637760
_cell_angle_alpha   150.00000000
_cell_angle_beta   90.00000000
_cell_angle_gamma   90.00000000
_symmetry_Int_Tables_number   1
_chemical_formula_structural   ZrNi3
_chemical_formula_sum   'Zr72 Ni216'
_cell_volume   9481.47307432
_cell_formula_units_Z   72
loop_
 _symmetry_equiv_pos_site_id
 _symmetry_equiv_pos_as_xyz
  1  'x, y, z'
loop_
 _atom_site_type_symbol
 _atom_site_label
 _atom_site_symmetry_multiplicity
 _atom_site_fract_x
 _atom_site_fract_y
 _atom_site_fract_z
 _atom_site_occupancy
  Zr  Zr0  1  0.25000000  0.11111111  0.07664350  1.0
  Zr  Zr1  1  0.25000000  0.44444444  0.07664350  1.0
  Zr  Zr2  1  0.25000000  0.77777778  0.07664350  1.0
  Zr  Zr3  1  0.58333333  0.11111111  0.07664350  1.0
  Zr  Zr4  1  0.58333333  0.44444444  0.07664350  1.0
  Zr  Zr5  1  0.58333333  0.77777778  0.07664350  1.0
  Zr  Zr6  1  0.91666667  0.11111111  0.07664350  1.0
  Zr  Zr7  1  0.91666667  0.44444444  0.07664350  1.0
  Zr  Zr8  1  0.91666667  0.77777778  0.07664350  1.0
  Zr  Zr9  1  0.08333333  0.22222222  0.07664350  1.0
  Zr  Zr10  1  0.08333333  0.55555556  0.07664350  1.0
  Zr  Zr11  1  0.08333333  0.88888889  0.07664350  1.0
  Zr  Zr12  1  0.41666667  0.22222222  0.07664350  1.0
  Zr  Zr13  1  0.41666667  0.55555556  0.07664350  1.0
  Zr  Zr14  1  0.41666667  0.88888889  0.07664350  1.0
  Zr  Zr15  1  0.75000000  0.22222222  0.07664350  1.0
  Zr  Zr16  1  0.75000000  0.55555556  0.07664350  1.0
  Zr  Zr17  1  0.75000000  0.88888889  0.07664350  1.0
  Ni  Ni18  1  0.25000000  0.28143000  0.02993050  1.0
  Ni  Ni19  1  0.25000000  0.61476333  0.02993050  1.0
  Ni  Ni20  1  0.25000000  0.94809667  0.02993050  1.0
  Ni  Ni21  1  0.58333333  0.28143000  0.02993050  1.0
  Ni  Ni22  1  0.58333333  0.61476333  0.02993050  1.0
  Ni  Ni23  1  0.58333333  0.94809667  0.02993050  1.0
  Ni  Ni24  1  0.91666667  0.28143000  0.02993050  1.0
  Ni  Ni25  1  0.91666667  0.61476333  0.02993050  1.0
  Ni  Ni26  1  0.91666667  0.94809667  0.02993050  1.0
  Ni  Ni27  1  0.08333333  0.22952667  0.02993050  1.0
  Ni  Ni28  1  0.08333333  0.56286000  0.02993050  1.0
  Ni  Ni29  1  0.08333333  0.89619333  0.02993050  1.0
  Ni  Ni30  1  0.41666667  0.22952667  0.02993050  1.0
  Ni  Ni31  1  0.41666667  0.56286000  0.02993050  1.0
  Ni  Ni32  1  0.41666667  0.89619333  0.02993050  1.0
  Ni  Ni33  1  0.75000000  0.22952667  0.02993050  1.0
  Ni  Ni34  1  0.75000000  0.56286000  0.02993050  1.0
  Ni  Ni35  1  0.75000000  0.89619333  0.02993050  1.0
  Ni  Ni36  1  0.08333333  0.05190333  0.02335650  1.0
  Ni  Ni37  1  0.08333333  0.38523667  0.02335650  1.0
  Ni  Ni38  1  0.08333333  0.71857000  0.02335650  1.0
  Ni  Ni39  1  0.41666667  0.05190333  0.02335650  1.0
  Ni  Ni40  1  0.41666667  0.38523667  0.02335650  1.0
  Ni  Ni41  1  0.41666667  0.71857000  0.02335650  1.0
  Ni  Ni42  1  0.75000000  0.05190333  0.02335650  1.0
  Ni  Ni43  1  0.75000000  0.38523667  0.02335650  1.0
  Ni  Ni44  1  0.75000000  0.71857000  0.02335650  1.0
  Ni  Ni45  1  0.25000000  0.10380667  0.02335650  1.0
  Ni  Ni46  1  0.25000000  0.43714000  0.02335650  1.0
  Ni  Ni47  1  0.25000000  0.77047333  0.02335650  1.0
  Ni  Ni48  1  0.58333333  0.10380667  0.02335650  1.0
  Ni  Ni49  1  0.58333333  0.43714000  0.02335650  1.0
  Ni  Ni50  1  0.58333333  0.77047333  0.02335650  1.0
  Ni  Ni51  1  0.91666667  0.10380667  0.02335650  1.0
  Ni  Ni52  1  0.91666667  0.43714000  0.02335650  1.0
  Ni  Ni53  1  0.91666667  0.77047333  0.02335650  1.0
  Ni  Ni54  1  0.25000000  0.28143000  0.07664350  1.0
  Ni  Ni55  1  0.25000000  0.61476333  0.07664350  1.0
  Ni  Ni56  1  0.25000000  0.94809667  0.07664350  1.0
  Ni  Ni57  1  0.58333333  0.28143000  0.07664350  1.0
  Ni  Ni58  1  0.58333333  0.61476333  0.07664350  1.0
  Ni  Ni59  1  0.58333333  0.94809667  0.07664350  1.0
  Ni  Ni60  1  0.91666667  0.28143000  0.07664350  1.0
  Ni  Ni61  1  0.91666667  0.61476333  0.07664350  1.0
  Ni  Ni62  1  0.91666667  0.94809667  0.07664350  1.0
  Ni  Ni63  1  0.08333333  0.05190333  0.07664350  1.0
  Ni  Ni64  1  0.08333333  0.38523667  0.07664350  1.0
  Ni  Ni65  1  0.08333333  0.71857000  0.07664350  1.0
  Ni  Ni66  1  0.41666667  0.05190333  0.07664350  1.0
  Ni  Ni67  1  0.41666667  0.38523667  0.07664350  1.0
  Ni  Ni68  1  0.41666667  0.71857000  0.07664350  1.0
  Ni  Ni69  1  0.75000000  0.05190333  0.07664350  1.0
  Ni  Ni70  1  0.75000000  0.38523667  0.07664350  1.0
  Ni  Ni71  1  0.75000000  0.71857000  0.07664350  1.0
  Zr  Zr72  1  0.25000000  0.11111111  0.17664350  1.0
  Zr  Zr73  1  0.25000000  0.44444444  0.17664350  1.0
  Zr  Zr74  1  0.25000000  0.77777778  0.17664350  1.0
  Zr  Zr75  1  0.58333333  0.11111111  0.17664350  1.0
  Zr  Zr76  1  0.58333333  0.44444444  0.17664350  1.0
  Zr  Zr77  1  0.58333333  0.77777778  0.17664350  1.0
  Zr  Zr78  1  0.91666667  0.11111111  0.17664350  1.0
  Zr  Zr79  1  0.91666667  0.44444444  0.17664350  1.0
  Zr  Zr80  1  0.91666667  0.77777778  0.17664350  1.0
  Zr  Zr81  1  0.08333333  0.22222222  0.17664350  1.0
  Zr  Zr82  1  0.08333333  0.55555556  0.17664350  1.0
  Zr  Zr83  1  0.08333333  0.88888889  0.17664350  1.0
  Zr  Zr84  1  0.41666667  0.22222222  0.17664350  1.0
  Zr  Zr85  1  0.41666667  0.55555556  0.17664350  1.0
  Zr  Zr86  1  0.41666667  0.88888889  0.17664350  1.0
  Zr  Zr87  1  0.75000000  0.22222222  0.17664350  1.0
  Zr  Zr88  1  0.75000000  0.55555556  0.17664350  1.0
  Zr  Zr89  1  0.75000000  0.88888889  0.17664350  1.0
  Ni  Ni90  1  0.25000000  0.28143000  0.12993050  1.0
  Ni  Ni91  1  0.25000000  0.61476333  0.12993050  1.0
  Ni  Ni92  1  0.25000000  0.94809667  0.12993050  1.0
  Ni  Ni93  1  0.58333333  0.28143000  0.12993050  1.0
  Ni  Ni94  1  0.58333333  0.61476333  0.12993050  1.0
  Ni  Ni95  1  0.58333333  0.94809667  0.12993050  1.0
  Ni  Ni96  1  0.91666667  0.28143000  0.12993050  1.0
  Ni  Ni97  1  0.91666667  0.61476333  0.12993050  1.0
  Ni  Ni98  1  0.91666667  0.94809667  0.12993050  1.0
  Ni  Ni99  1  0.08333333  0.22952667  0.12993050  1.0
  Ni  Ni100  1  0.08333333  0.56286000  0.12993050  1.0
  Ni  Ni101  1  0.08333333  0.89619333  0.12993050  1.0
  Ni  Ni102  1  0.41666667  0.22952667  0.12993050  1.0
  Ni  Ni103  1  0.41666667  0.56286000  0.12993050  1.0
  Ni  Ni104  1  0.41666667  0.89619333  0.12993050  1.0
  Ni  Ni105  1  0.75000000  0.22952667  0.12993050  1.0
  Ni  Ni106  1  0.75000000  0.56286000  0.12993050  1.0
  Ni  Ni107  1  0.75000000  0.89619333  0.12993050  1.0
  Ni  Ni108  1  0.08333333  0.05190333  0.12335650  1.0
  Ni  Ni109  1  0.08333333  0.38523667  0.12335650  1.0
  Ni  Ni110  1  0.08333333  0.71857000  0.12335650  1.0
  Ni  Ni111  1  0.41666667  0.05190333  0.12335650  1.0
  Ni  Ni112  1  0.41666667  0.38523667  0.12335650  1.0
  Ni  Ni113  1  0.41666667  0.71857000  0.12335650  1.0
  Ni  Ni114  1  0.75000000  0.05190333  0.12335650  1.0
  Ni  Ni115  1  0.75000000  0.38523667  0.12335650  1.0
  Ni  Ni116  1  0.75000000  0.71857000  0.12335650  1.0
  Ni  Ni117  1  0.25000000  0.10380667  0.12335650  1.0
  Ni  Ni118  1  0.25000000  0.43714000  0.12335650  1.0
  Ni  Ni119  1  0.25000000  0.77047333  0.12335650  1.0
  Ni  Ni120  1  0.58333333  0.10380667  0.12335650  1.0
  Ni  Ni121  1  0.58333333  0.43714000  0.12335650  1.0
  Ni  Ni122  1  0.58333333  0.77047333  0.12335650  1.0
  Ni  Ni123  1  0.91666667  0.10380667  0.12335650  1.0
  Ni  Ni124  1  0.91666667  0.43714000  0.12335650  1.0
  Ni  Ni125  1  0.91666667  0.77047333  0.12335650  1.0
  Ni  Ni126  1  0.25000000  0.28143000  0.17664350  1.0
  Ni  Ni127  1  0.25000000  0.61476333  0.17664350  1.0
  Ni  Ni128  1  0.25000000  0.94809667  0.17664350  1.0
  Ni  Ni129  1  0.58333333  0.28143000  0.17664350  1.0
  Ni  Ni130  1  0.58333333  0.61476333  0.17664350  1.0
  Ni  Ni131  1  0.58333333  0.94809667  0.17664350  1.0
  Ni  Ni132  1  0.91666667  0.28143000  0.17664350  1.0
  Ni  Ni133  1  0.91666667  0.61476333  0.17664350  1.0
  Ni  Ni134  1  0.91666667  0.94809667  0.17664350  1.0
  Ni  Ni135  1  0.08333333  0.05190333  0.17664350  1.0
  Ni  Ni136  1  0.08333333  0.38523667  0.17664350  1.0
  Ni  Ni137  1  0.08333333  0.71857000  0.17664350  1.0
  Ni  Ni138  1  0.41666667  0.05190333  0.17664350  1.0
  Ni  Ni139  1  0.41666667  0.38523667  0.17664350  1.0
  Ni  Ni140  1  0.41666667  0.71857000  0.17664350  1.0
  Ni  Ni141  1  0.75000000  0.05190333  0.17664350  1.0
  Ni  Ni142  1  0.75000000  0.38523667  0.17664350  1.0
  Ni  Ni143  1  0.75000000  0.71857000  0.17664350  1.0
  Zr  Zr144  1  0.25000000  0.11111111  0.27664350  1.0
  Zr  Zr145  1  0.25000000  0.44444444  0.27664350  1.0
  Zr  Zr146  1  0.25000000  0.77777778  0.27664350  1.0
  Zr  Zr147  1  0.58333333  0.11111111  0.27664350  1.0
  Zr  Zr148  1  0.58333333  0.44444444  0.27664350  1.0
  Zr  Zr149  1  0.58333333  0.77777778  0.27664350  1.0
  Zr  Zr150  1  0.91666667  0.11111111  0.27664350  1.0
  Zr  Zr151  1  0.91666667  0.44444444  0.27664350  1.0
  Zr  Zr152  1  0.91666667  0.77777778  0.27664350  1.0
  Zr  Zr153  1  0.08333333  0.22222222  0.27664350  1.0
  Zr  Zr154  1  0.08333333  0.55555556  0.27664350  1.0
  Zr  Zr155  1  0.08333333  0.88888889  0.27664350  1.0
  Zr  Zr156  1  0.41666667  0.22222222  0.27664350  1.0
  Zr  Zr157  1  0.41666667  0.55555556  0.27664350  1.0
  Zr  Zr158  1  0.41666667  0.88888889  0.27664350  1.0
  Zr  Zr159  1  0.75000000  0.22222222  0.27664350  1.0
  Zr  Zr160  1  0.75000000  0.55555556  0.27664350  1.0
  Zr  Zr161  1  0.75000000  0.88888889  0.27664350  1.0
  Ni  Ni162  1  0.25000000  0.28143000  0.22993050  1.0
  Ni  Ni163  1  0.25000000  0.61476333  0.22993050  1.0
  Ni  Ni164  1  0.25000000  0.94809667  0.22993050  1.0
  Ni  Ni165  1  0.58333333  0.28143000  0.22993050  1.0
  Ni  Ni166  1  0.58333333  0.61476333  0.22993050  1.0
  Ni  Ni167  1  0.58333333  0.94809667  0.22993050  1.0
  Ni  Ni168  1  0.91666667  0.28143000  0.22993050  1.0
  Ni  Ni169  1  0.91666667  0.61476333  0.22993050  1.0
  Ni  Ni170  1  0.91666667  0.94809667  0.22993050  1.0
  Ni  Ni171  1  0.08333333  0.22952667  0.22993050  1.0
  Ni  Ni172  1  0.08333333  0.56286000  0.22993050  1.0
  Ni  Ni173  1  0.08333333  0.89619333  0.22993050  1.0
  Ni  Ni174  1  0.41666667  0.22952667  0.22993050  1.0
  Ni  Ni175  1  0.41666667  0.56286000  0.22993050  1.0
  Ni  Ni176  1  0.41666667  0.89619333  0.22993050  1.0
  Ni  Ni177  1  0.75000000  0.22952667  0.22993050  1.0
  Ni  Ni178  1  0.75000000  0.56286000  0.22993050  1.0
  Ni  Ni179  1  0.75000000  0.89619333  0.22993050  1.0
  Ni  Ni180  1  0.08333333  0.05190333  0.22335650  1.0
  Ni  Ni181  1  0.08333333  0.38523667  0.22335650  1.0
  Ni  Ni182  1  0.08333333  0.71857000  0.22335650  1.0
  Ni  Ni183  1  0.41666667  0.05190333  0.22335650  1.0
  Ni  Ni184  1  0.41666667  0.38523667  0.22335650  1.0
  Ni  Ni185  1  0.41666667  0.71857000  0.22335650  1.0
  Ni  Ni186  1  0.75000000  0.05190333  0.22335650  1.0
  Ni  Ni187  1  0.75000000  0.38523667  0.22335650  1.0
  Ni  Ni188  1  0.75000000  0.71857000  0.22335650  1.0
  Ni  Ni189  1  0.25000000  0.10380667  0.22335650  1.0
  Ni  Ni190  1  0.25000000  0.43714000  0.22335650  1.0
  Ni  Ni191  1  0.25000000  0.77047333  0.22335650  1.0
  Ni  Ni192  1  0.58333333  0.10380667  0.22335650  1.0
  Ni  Ni193  1  0.58333333  0.43714000  0.22335650  1.0
  Ni  Ni194  1  0.58333333  0.77047333  0.22335650  1.0
  Ni  Ni195  1  0.91666667  0.10380667  0.22335650  1.0
  Ni  Ni196  1  0.91666667  0.43714000  0.22335650  1.0
  Ni  Ni197  1  0.91666667  0.77047333  0.22335650  1.0
  Ni  Ni198  1  0.25000000  0.28143000  0.27664350  1.0
  Ni  Ni199  1  0.25000000  0.61476333  0.27664350  1.0
  Ni  Ni200  1  0.25000000  0.94809667  0.27664350  1.0
  Ni  Ni201  1  0.58333333  0.28143000  0.27664350  1.0
  Ni  Ni202  1  0.58333333  0.61476333  0.27664350  1.0
  Ni  Ni203  1  0.58333333  0.94809667  0.27664350  1.0
  Ni  Ni204  1  0.91666667  0.28143000  0.27664350  1.0
  Ni  Ni205  1  0.91666667  0.61476333  0.27664350  1.0
  Ni  Ni206  1  0.91666667  0.94809667  0.27664350  1.0
  Ni  Ni207  1  0.08333333  0.05190333  0.27664350  1.0
  Ni  Ni208  1  0.08333333  0.38523667  0.27664350  1.0
  Ni  Ni209  1  0.08333333  0.71857000  0.27664350  1.0
  Ni  Ni210  1  0.41666667  0.05190333  0.27664350  1.0
  Ni  Ni211  1  0.41666667  0.38523667  0.27664350  1.0
  Ni  Ni212  1  0.41666667  0.71857000  0.27664350  1.0
  Ni  Ni213  1  0.75000000  0.05190333  0.27664350  1.0
  Ni  Ni214  1  0.75000000  0.38523667  0.27664350  1.0
  Ni  Ni215  1  0.75000000  0.71857000  0.27664350  1.0
  Zr  Zr216  1  0.25000000  0.11111111  0.37664350  1.0
  Zr  Zr217  1  0.25000000  0.44444444  0.37664350  1.0
  Zr  Zr218  1  0.25000000  0.77777778  0.37664350  1.0
  Zr  Zr219  1  0.58333333  0.11111111  0.37664350  1.0
  Zr  Zr220  1  0.58333333  0.44444444  0.37664350  1.0
  Zr  Zr221  1  0.58333333  0.77777778  0.37664350  1.0
  Zr  Zr222  1  0.91666667  0.11111111  0.37664350  1.0
  Zr  Zr223  1  0.91666667  0.44444444  0.37664350  1.0
  Zr  Zr224  1  0.91666667  0.77777778  0.37664350  1.0
  Zr  Zr225  1  0.08333333  0.22222222  0.37664350  1.0
  Zr  Zr226  1  0.08333333  0.55555556  0.37664350  1.0
  Zr  Zr227  1  0.08333333  0.88888889  0.37664350  1.0
  Zr  Zr228  1  0.41666667  0.22222222  0.37664350  1.0
  Zr  Zr229  1  0.41666667  0.55555556  0.37664350  1.0
  Zr  Zr230  1  0.41666667  0.88888889  0.37664350  1.0
  Zr  Zr231  1  0.75000000  0.22222222  0.37664350  1.0
  Zr  Zr232  1  0.75000000  0.55555556  0.37664350  1.0
  Zr  Zr233  1  0.75000000  0.88888889  0.37664350  1.0
  Ni  Ni234  1  0.25000000  0.28143000  0.32993050  1.0
  Ni  Ni235  1  0.25000000  0.61476333  0.32993050  1.0
  Ni  Ni236  1  0.25000000  0.94809667  0.32993050  1.0
  Ni  Ni237  1  0.58333333  0.28143000  0.32993050  1.0
  Ni  Ni238  1  0.58333333  0.61476333  0.32993050  1.0
  Ni  Ni239  1  0.58333333  0.94809667  0.32993050  1.0
  Ni  Ni240  1  0.91666667  0.28143000  0.32993050  1.0
  Ni  Ni241  1  0.91666667  0.61476333  0.32993050  1.0
  Ni  Ni242  1  0.91666667  0.94809667  0.32993050  1.0
  Ni  Ni243  1  0.08333333  0.22952667  0.32993050  1.0
  Ni  Ni244  1  0.08333333  0.56286000  0.32993050  1.0
  Ni  Ni245  1  0.08333333  0.89619333  0.32993050  1.0
  Ni  Ni246  1  0.41666667  0.22952667  0.32993050  1.0
  Ni  Ni247  1  0.41666667  0.56286000  0.32993050  1.0
  Ni  Ni248  1  0.41666667  0.89619333  0.32993050  1.0
  Ni  Ni249  1  0.75000000  0.22952667  0.32993050  1.0
  Ni  Ni250  1  0.75000000  0.56286000  0.32993050  1.0
  Ni  Ni251  1  0.75000000  0.89619333  0.32993050  1.0
  Ni  Ni252  1  0.08333333  0.05190333  0.32335650  1.0
  Ni  Ni253  1  0.08333333  0.38523667  0.32335650  1.0
  Ni  Ni254  1  0.08333333  0.71857000  0.32335650  1.0
  Ni  Ni255  1  0.41666667  0.05190333  0.32335650  1.0
  Ni  Ni256  1  0.41666667  0.38523667  0.32335650  1.0
  Ni  Ni257  1  0.41666667  0.71857000  0.32335650  1.0
  Ni  Ni258  1  0.75000000  0.05190333  0.32335650  1.0
  Ni  Ni259  1  0.75000000  0.38523667  0.32335650  1.0
  Ni  Ni260  1  0.75000000  0.71857000  0.32335650  1.0
  Ni  Ni261  1  0.25000000  0.10380667  0.32335650  1.0
  Ni  Ni262  1  0.25000000  0.43714000  0.32335650  1.0
  Ni  Ni263  1  0.25000000  0.77047333  0.32335650  1.0
  Ni  Ni264  1  0.58333333  0.10380667  0.32335650  1.0
  Ni  Ni265  1  0.58333333  0.43714000  0.32335650  1.0
  Ni  Ni266  1  0.58333333  0.77047333  0.32335650  1.0
  Ni  Ni267  1  0.91666667  0.10380667  0.32335650  1.0
  Ni  Ni268  1  0.91666667  0.43714000  0.32335650  1.0
  Ni  Ni269  1  0.91666667  0.77047333  0.32335650  1.0
  Ni  Ni270  1  0.25000000  0.28143000  0.37664350  1.0
  Ni  Ni271  1  0.25000000  0.61476333  0.37664350  1.0
  Ni  Ni272  1  0.25000000  0.94809667  0.37664350  1.0
  Ni  Ni273  1  0.58333333  0.28143000  0.37664350  1.0
  Ni  Ni274  1  0.58333333  0.61476333  0.37664350  1.0
  Ni  Ni275  1  0.58333333  0.94809667  0.37664350  1.0
  Ni  Ni276  1  0.91666667  0.28143000  0.37664350  1.0
  Ni  Ni277  1  0.91666667  0.61476333  0.37664350  1.0
  Ni  Ni278  1  0.91666667  0.94809667  0.37664350  1.0
  Ni  Ni279  1  0.08333333  0.05190333  0.37664350  1.0
  Ni  Ni280  1  0.08333333  0.38523667  0.37664350  1.0
  Ni  Ni281  1  0.08333333  0.71857000  0.37664350  1.0
  Ni  Ni282  1  0.41666667  0.05190333  0.37664350  1.0
  Ni  Ni283  1  0.41666667  0.38523667  0.37664350  1.0
  Ni  Ni284  1  0.41666667  0.71857000  0.37664350  1.0
  Ni  Ni285  1  0.75000000  0.05190333  0.37664350  1.0
  Ni  Ni286  1  0.75000000  0.38523667  0.37664350  1.0
  Ni  Ni287  1  0.75000000  0.71857000  0.37664350  1.0
