# generated using pymatgen
data_ZrNi3
_symmetry_space_group_name_H-M   'P 1'
_cell_length_a   42.19156672
_cell_length_b   20.52110332
_cell_length_c   43.05186000
_cell_angle_alpha   50.99565548
_cell_angle_beta   90.00000000
_cell_angle_gamma   54.02508088
_symmetry_Int_Tables_number   1
_chemical_formula_structural   ZrNi3
_chemical_formula_sum   'Zr144 Ni432'
_cell_volume   18962.94614865
_cell_formula_units_Z   144
loop_
 _symmetry_equiv_pos_site_id
 _symmetry_equiv_pos_as_xyz
  1  'x, y, z'
loop_
 _atom_site_type_symbol
 _atom_site_label
 _atom_site_symmetry_multiplicity
 _atom_site_fract_x
 _atom_site_fract_y
 _atom_site_fract_z
 _atom_site_occupancy
  Zr  Zr0  1  0.27777778  0.27777778  0.04166667  1.0
  Zr  Zr1  1  0.27777778  0.61111111  0.04166667  1.0
  Zr  Zr2  1  0.27777778  0.94444444  0.04166667  1.0
  Zr  Zr3  1  0.61111111  0.27777778  0.04166667  1.0
  Zr  Zr4  1  0.61111111  0.61111111  0.04166667  1.0
  Zr  Zr5  1  0.61111111  0.94444444  0.04166667  1.0
  Zr  Zr6  1  0.94444444  0.27777778  0.04166667  1.0
  Zr  Zr7  1  0.94444444  0.61111111  0.04166667  1.0
  Zr  Zr8  1  0.94444444  0.94444444  0.04166667  1.0
  Zr  Zr9  1  0.11111111  0.11111111  0.09166667  1.0
  Zr  Zr10  1  0.11111111  0.44444444  0.09166667  1.0
  Zr  Zr11  1  0.11111111  0.77777778  0.09166667  1.0
  Zr  Zr12  1  0.44444444  0.11111111  0.09166667  1.0
  Zr  Zr13  1  0.44444444  0.44444444  0.09166667  1.0
  Zr  Zr14  1  0.44444444  0.77777778  0.09166667  1.0
  Zr  Zr15  1  0.77777778  0.11111111  0.09166667  1.0
  Zr  Zr16  1  0.77777778  0.44444444  0.09166667  1.0
  Zr  Zr17  1  0.77777778  0.77777778  0.09166667  1.0
  Zr  Zr18  1  0.22222222  0.22222222  0.00833333  1.0
  Zr  Zr19  1  0.22222222  0.55555556  0.00833333  1.0
  Zr  Zr20  1  0.22222222  0.88888889  0.00833333  1.0
  Zr  Zr21  1  0.55555556  0.22222222  0.00833333  1.0
  Zr  Zr22  1  0.55555556  0.55555556  0.00833333  1.0
  Zr  Zr23  1  0.55555556  0.88888889  0.00833333  1.0
  Zr  Zr24  1  0.88888889  0.22222222  0.00833333  1.0
  Zr  Zr25  1  0.88888889  0.55555556  0.00833333  1.0
  Zr  Zr26  1  0.88888889  0.88888889  0.00833333  1.0
  Zr  Zr27  1  0.05555556  0.05555556  0.05833333  1.0
  Zr  Zr28  1  0.05555556  0.38888889  0.05833333  1.0
  Zr  Zr29  1  0.05555556  0.72222222  0.05833333  1.0
  Zr  Zr30  1  0.38888889  0.05555556  0.05833333  1.0
  Zr  Zr31  1  0.38888889  0.38888889  0.05833333  1.0
  Zr  Zr32  1  0.38888889  0.72222222  0.05833333  1.0
  Zr  Zr33  1  0.72222222  0.05555556  0.05833333  1.0
  Zr  Zr34  1  0.72222222  0.38888889  0.05833333  1.0
  Zr  Zr35  1  0.72222222  0.72222222  0.05833333  1.0
  Ni  Ni36  1  0.19261833  0.03690833  0.01392750  1.0
  Ni  Ni37  1  0.19261833  0.37024167  0.01392750  1.0
  Ni  Ni38  1  0.19261833  0.70357500  0.01392750  1.0
  Ni  Ni39  1  0.52595167  0.03690833  0.01392750  1.0
  Ni  Ni40  1  0.52595167  0.37024167  0.01392750  1.0
  Ni  Ni41  1  0.52595167  0.70357500  0.01392750  1.0
  Ni  Ni42  1  0.85928500  0.03690833  0.01392750  1.0
  Ni  Ni43  1  0.85928500  0.37024167  0.01392750  1.0
  Ni  Ni44  1  0.85928500  0.70357500  0.01392750  1.0
  Ni  Ni45  1  0.02595167  0.20357500  0.06392750  1.0
  Ni  Ni46  1  0.02595167  0.53690833  0.06392750  1.0
  Ni  Ni47  1  0.02595167  0.87024167  0.06392750  1.0
  Ni  Ni48  1  0.35928500  0.20357500  0.06392750  1.0
  Ni  Ni49  1  0.35928500  0.53690833  0.06392750  1.0
  Ni  Ni50  1  0.35928500  0.87024167  0.06392750  1.0
  Ni  Ni51  1  0.69261833  0.20357500  0.06392750  1.0
  Ni  Ni52  1  0.69261833  0.53690833  0.06392750  1.0
  Ni  Ni53  1  0.69261833  0.87024167  0.06392750  1.0
  Ni  Ni54  1  0.21857000  0.06286000  0.05614200  1.0
  Ni  Ni55  1  0.21857000  0.39619333  0.05614200  1.0
  Ni  Ni56  1  0.21857000  0.72952667  0.05614200  1.0
  Ni  Ni57  1  0.55190333  0.06286000  0.05614200  1.0
  Ni  Ni58  1  0.55190333  0.39619333  0.05614200  1.0
  Ni  Ni59  1  0.55190333  0.72952667  0.05614200  1.0
  Ni  Ni60  1  0.88523667  0.06286000  0.05614200  1.0
  Ni  Ni61  1  0.88523667  0.39619333  0.05614200  1.0
  Ni  Ni62  1  0.88523667  0.72952667  0.05614200  1.0
  Ni  Ni63  1  0.05190333  0.22952667  0.00614200  1.0
  Ni  Ni64  1  0.05190333  0.56286000  0.00614200  1.0
  Ni  Ni65  1  0.05190333  0.89619333  0.00614200  1.0
  Ni  Ni66  1  0.38523667  0.22952667  0.00614200  1.0
  Ni  Ni67  1  0.38523667  0.56286000  0.00614200  1.0
  Ni  Ni68  1  0.38523667  0.89619333  0.00614200  1.0
  Ni  Ni69  1  0.71857000  0.22952667  0.00614200  1.0
  Ni  Ni70  1  0.71857000  0.56286000  0.00614200  1.0
  Ni  Ni71  1  0.71857000  0.89619333  0.00614200  1.0
  Ni  Ni72  1  0.30738167  0.12975833  0.03607250  1.0
  Ni  Ni73  1  0.30738167  0.46309167  0.03607250  1.0
  Ni  Ni74  1  0.30738167  0.79642500  0.03607250  1.0
  Ni  Ni75  1  0.64071500  0.12975833  0.03607250  1.0
  Ni  Ni76  1  0.64071500  0.46309167  0.03607250  1.0
  Ni  Ni77  1  0.64071500  0.79642500  0.03607250  1.0
  Ni  Ni78  1  0.97404833  0.12975833  0.03607250  1.0
  Ni  Ni79  1  0.97404833  0.46309167  0.03607250  1.0
  Ni  Ni80  1  0.97404833  0.79642500  0.03607250  1.0
  Ni  Ni81  1  0.14071500  0.29642500  0.08607250  1.0
  Ni  Ni82  1  0.14071500  0.62975833  0.08607250  1.0
  Ni  Ni83  1  0.14071500  0.96309167  0.08607250  1.0
  Ni  Ni84  1  0.47404833  0.29642500  0.08607250  1.0
  Ni  Ni85  1  0.47404833  0.62975833  0.08607250  1.0
  Ni  Ni86  1  0.47404833  0.96309167  0.08607250  1.0
  Ni  Ni87  1  0.80738167  0.29642500  0.08607250  1.0
  Ni  Ni88  1  0.80738167  0.62975833  0.08607250  1.0
  Ni  Ni89  1  0.80738167  0.96309167  0.08607250  1.0
  Ni  Ni90  1  0.28143000  0.10380667  0.09385800  1.0
  Ni  Ni91  1  0.28143000  0.43714000  0.09385800  1.0
  Ni  Ni92  1  0.28143000  0.77047333  0.09385800  1.0
  Ni  Ni93  1  0.61476333  0.10380667  0.09385800  1.0
  Ni  Ni94  1  0.61476333  0.43714000  0.09385800  1.0
  Ni  Ni95  1  0.61476333  0.77047333  0.09385800  1.0
  Ni  Ni96  1  0.94809667  0.10380667  0.09385800  1.0
  Ni  Ni97  1  0.94809667  0.43714000  0.09385800  1.0
  Ni  Ni98  1  0.94809667  0.77047333  0.09385800  1.0
  Ni  Ni99  1  0.11476333  0.27047333  0.04385800  1.0
  Ni  Ni100  1  0.11476333  0.60380667  0.04385800  1.0
  Ni  Ni101  1  0.11476333  0.93714000  0.04385800  1.0
  Ni  Ni102  1  0.44809667  0.27047333  0.04385800  1.0
  Ni  Ni103  1  0.44809667  0.60380667  0.04385800  1.0
  Ni  Ni104  1  0.44809667  0.93714000  0.04385800  1.0
  Ni  Ni105  1  0.78143000  0.27047333  0.04385800  1.0
  Ni  Ni106  1  0.78143000  0.60380667  0.04385800  1.0
  Ni  Ni107  1  0.78143000  0.93714000  0.04385800  1.0
  Ni  Ni108  1  0.19261833  0.19261833  0.06721450  1.0
  Ni  Ni109  1  0.19261833  0.52595167  0.06721450  1.0
  Ni  Ni110  1  0.19261833  0.85928500  0.06721450  1.0
  Ni  Ni111  1  0.52595167  0.19261833  0.06721450  1.0
  Ni  Ni112  1  0.52595167  0.52595167  0.06721450  1.0
  Ni  Ni113  1  0.52595167  0.85928500  0.06721450  1.0
  Ni  Ni114  1  0.85928500  0.19261833  0.06721450  1.0
  Ni  Ni115  1  0.85928500  0.52595167  0.06721450  1.0
  Ni  Ni116  1  0.85928500  0.85928500  0.06721450  1.0
  Ni  Ni117  1  0.02595167  0.02595167  0.01721450  1.0
  Ni  Ni118  1  0.02595167  0.35928500  0.01721450  1.0
  Ni  Ni119  1  0.02595167  0.69261833  0.01721450  1.0
  Ni  Ni120  1  0.35928500  0.02595167  0.01721450  1.0
  Ni  Ni121  1  0.35928500  0.35928500  0.01721450  1.0
  Ni  Ni122  1  0.35928500  0.69261833  0.01721450  1.0
  Ni  Ni123  1  0.69261833  0.02595167  0.01721450  1.0
  Ni  Ni124  1  0.69261833  0.35928500  0.01721450  1.0
  Ni  Ni125  1  0.69261833  0.69261833  0.01721450  1.0
  Ni  Ni126  1  0.30738167  0.30738167  0.08278550  1.0
  Ni  Ni127  1  0.30738167  0.64071500  0.08278550  1.0
  Ni  Ni128  1  0.30738167  0.97404833  0.08278550  1.0
  Ni  Ni129  1  0.64071500  0.30738167  0.08278550  1.0
  Ni  Ni130  1  0.64071500  0.64071500  0.08278550  1.0
  Ni  Ni131  1  0.64071500  0.97404833  0.08278550  1.0
  Ni  Ni132  1  0.97404833  0.30738167  0.08278550  1.0
  Ni  Ni133  1  0.97404833  0.64071500  0.08278550  1.0
  Ni  Ni134  1  0.97404833  0.97404833  0.08278550  1.0
  Ni  Ni135  1  0.14071500  0.14071500  0.03278550  1.0
  Ni  Ni136  1  0.14071500  0.47404833  0.03278550  1.0
  Ni  Ni137  1  0.14071500  0.80738167  0.03278550  1.0
  Ni  Ni138  1  0.47404833  0.14071500  0.03278550  1.0
  Ni  Ni139  1  0.47404833  0.47404833  0.03278550  1.0
  Ni  Ni140  1  0.47404833  0.80738167  0.03278550  1.0
  Ni  Ni141  1  0.80738167  0.14071500  0.03278550  1.0
  Ni  Ni142  1  0.80738167  0.47404833  0.03278550  1.0
  Ni  Ni143  1  0.80738167  0.80738167  0.03278550  1.0
  Zr  Zr144  1  0.27777778  0.27777778  0.14166667  1.0
  Zr  Zr145  1  0.27777778  0.61111111  0.14166667  1.0
  Zr  Zr146  1  0.27777778  0.94444444  0.14166667  1.0
  Zr  Zr147  1  0.61111111  0.27777778  0.14166667  1.0
  Zr  Zr148  1  0.61111111  0.61111111  0.14166667  1.0
  Zr  Zr149  1  0.61111111  0.94444444  0.14166667  1.0
  Zr  Zr150  1  0.94444444  0.27777778  0.14166667  1.0
  Zr  Zr151  1  0.94444444  0.61111111  0.14166667  1.0
  Zr  Zr152  1  0.94444444  0.94444444  0.14166667  1.0
  Zr  Zr153  1  0.11111111  0.11111111  0.19166667  1.0
  Zr  Zr154  1  0.11111111  0.44444444  0.19166667  1.0
  Zr  Zr155  1  0.11111111  0.77777778  0.19166667  1.0
  Zr  Zr156  1  0.44444444  0.11111111  0.19166667  1.0
  Zr  Zr157  1  0.44444444  0.44444444  0.19166667  1.0
  Zr  Zr158  1  0.44444444  0.77777778  0.19166667  1.0
  Zr  Zr159  1  0.77777778  0.11111111  0.19166667  1.0
  Zr  Zr160  1  0.77777778  0.44444444  0.19166667  1.0
  Zr  Zr161  1  0.77777778  0.77777778  0.19166667  1.0
  Zr  Zr162  1  0.22222222  0.22222222  0.10833333  1.0
  Zr  Zr163  1  0.22222222  0.55555556  0.10833333  1.0
  Zr  Zr164  1  0.22222222  0.88888889  0.10833333  1.0
  Zr  Zr165  1  0.55555556  0.22222222  0.10833333  1.0
  Zr  Zr166  1  0.55555556  0.55555556  0.10833333  1.0
  Zr  Zr167  1  0.55555556  0.88888889  0.10833333  1.0
  Zr  Zr168  1  0.88888889  0.22222222  0.10833333  1.0
  Zr  Zr169  1  0.88888889  0.55555556  0.10833333  1.0
  Zr  Zr170  1  0.88888889  0.88888889  0.10833333  1.0
  Zr  Zr171  1  0.05555556  0.05555556  0.15833333  1.0
  Zr  Zr172  1  0.05555556  0.38888889  0.15833333  1.0
  Zr  Zr173  1  0.05555556  0.72222222  0.15833333  1.0
  Zr  Zr174  1  0.38888889  0.05555556  0.15833333  1.0
  Zr  Zr175  1  0.38888889  0.38888889  0.15833333  1.0
  Zr  Zr176  1  0.38888889  0.72222222  0.15833333  1.0
  Zr  Zr177  1  0.72222222  0.05555556  0.15833333  1.0
  Zr  Zr178  1  0.72222222  0.38888889  0.15833333  1.0
  Zr  Zr179  1  0.72222222  0.72222222  0.15833333  1.0
  Ni  Ni180  1  0.19261833  0.03690833  0.11392750  1.0
  Ni  Ni181  1  0.19261833  0.37024167  0.11392750  1.0
  Ni  Ni182  1  0.19261833  0.70357500  0.11392750  1.0
  Ni  Ni183  1  0.52595167  0.03690833  0.11392750  1.0
  Ni  Ni184  1  0.52595167  0.37024167  0.11392750  1.0
  Ni  Ni185  1  0.52595167  0.70357500  0.11392750  1.0
  Ni  Ni186  1  0.85928500  0.03690833  0.11392750  1.0
  Ni  Ni187  1  0.85928500  0.37024167  0.11392750  1.0
  Ni  Ni188  1  0.85928500  0.70357500  0.11392750  1.0
  Ni  Ni189  1  0.02595167  0.20357500  0.16392750  1.0
  Ni  Ni190  1  0.02595167  0.53690833  0.16392750  1.0
  Ni  Ni191  1  0.02595167  0.87024167  0.16392750  1.0
  Ni  Ni192  1  0.35928500  0.20357500  0.16392750  1.0
  Ni  Ni193  1  0.35928500  0.53690833  0.16392750  1.0
  Ni  Ni194  1  0.35928500  0.87024167  0.16392750  1.0
  Ni  Ni195  1  0.69261833  0.20357500  0.16392750  1.0
  Ni  Ni196  1  0.69261833  0.53690833  0.16392750  1.0
  Ni  Ni197  1  0.69261833  0.87024167  0.16392750  1.0
  Ni  Ni198  1  0.21857000  0.06286000  0.15614200  1.0
  Ni  Ni199  1  0.21857000  0.39619333  0.15614200  1.0
  Ni  Ni200  1  0.21857000  0.72952667  0.15614200  1.0
  Ni  Ni201  1  0.55190333  0.06286000  0.15614200  1.0
  Ni  Ni202  1  0.55190333  0.39619333  0.15614200  1.0
  Ni  Ni203  1  0.55190333  0.72952667  0.15614200  1.0
  Ni  Ni204  1  0.88523667  0.06286000  0.15614200  1.0
  Ni  Ni205  1  0.88523667  0.39619333  0.15614200  1.0
  Ni  Ni206  1  0.88523667  0.72952667  0.15614200  1.0
  Ni  Ni207  1  0.05190333  0.22952667  0.10614200  1.0
  Ni  Ni208  1  0.05190333  0.56286000  0.10614200  1.0
  Ni  Ni209  1  0.05190333  0.89619333  0.10614200  1.0
  Ni  Ni210  1  0.38523667  0.22952667  0.10614200  1.0
  Ni  Ni211  1  0.38523667  0.56286000  0.10614200  1.0
  Ni  Ni212  1  0.38523667  0.89619333  0.10614200  1.0
  Ni  Ni213  1  0.71857000  0.22952667  0.10614200  1.0
  Ni  Ni214  1  0.71857000  0.56286000  0.10614200  1.0
  Ni  Ni215  1  0.71857000  0.89619333  0.10614200  1.0
  Ni  Ni216  1  0.30738167  0.12975833  0.13607250  1.0
  Ni  Ni217  1  0.30738167  0.46309167  0.13607250  1.0
  Ni  Ni218  1  0.30738167  0.79642500  0.13607250  1.0
  Ni  Ni219  1  0.64071500  0.12975833  0.13607250  1.0
  Ni  Ni220  1  0.64071500  0.46309167  0.13607250  1.0
  Ni  Ni221  1  0.64071500  0.79642500  0.13607250  1.0
  Ni  Ni222  1  0.97404833  0.12975833  0.13607250  1.0
  Ni  Ni223  1  0.97404833  0.46309167  0.13607250  1.0
  Ni  Ni224  1  0.97404833  0.79642500  0.13607250  1.0
  Ni  Ni225  1  0.14071500  0.29642500  0.18607250  1.0
  Ni  Ni226  1  0.14071500  0.62975833  0.18607250  1.0
  Ni  Ni227  1  0.14071500  0.96309167  0.18607250  1.0
  Ni  Ni228  1  0.47404833  0.29642500  0.18607250  1.0
  Ni  Ni229  1  0.47404833  0.62975833  0.18607250  1.0
  Ni  Ni230  1  0.47404833  0.96309167  0.18607250  1.0
  Ni  Ni231  1  0.80738167  0.29642500  0.18607250  1.0
  Ni  Ni232  1  0.80738167  0.62975833  0.18607250  1.0
  Ni  Ni233  1  0.80738167  0.96309167  0.18607250  1.0
  Ni  Ni234  1  0.28143000  0.10380667  0.19385800  1.0
  Ni  Ni235  1  0.28143000  0.43714000  0.19385800  1.0
  Ni  Ni236  1  0.28143000  0.77047333  0.19385800  1.0
  Ni  Ni237  1  0.61476333  0.10380667  0.19385800  1.0
  Ni  Ni238  1  0.61476333  0.43714000  0.19385800  1.0
  Ni  Ni239  1  0.61476333  0.77047333  0.19385800  1.0
  Ni  Ni240  1  0.94809667  0.10380667  0.19385800  1.0
  Ni  Ni241  1  0.94809667  0.43714000  0.19385800  1.0
  Ni  Ni242  1  0.94809667  0.77047333  0.19385800  1.0
  Ni  Ni243  1  0.11476333  0.27047333  0.14385800  1.0
  Ni  Ni244  1  0.11476333  0.60380667  0.14385800  1.0
  Ni  Ni245  1  0.11476333  0.93714000  0.14385800  1.0
  Ni  Ni246  1  0.44809667  0.27047333  0.14385800  1.0
  Ni  Ni247  1  0.44809667  0.60380667  0.14385800  1.0
  Ni  Ni248  1  0.44809667  0.93714000  0.14385800  1.0
  Ni  Ni249  1  0.78143000  0.27047333  0.14385800  1.0
  Ni  Ni250  1  0.78143000  0.60380667  0.14385800  1.0
  Ni  Ni251  1  0.78143000  0.93714000  0.14385800  1.0
  Ni  Ni252  1  0.19261833  0.19261833  0.16721450  1.0
  Ni  Ni253  1  0.19261833  0.52595167  0.16721450  1.0
  Ni  Ni254  1  0.19261833  0.85928500  0.16721450  1.0
  Ni  Ni255  1  0.52595167  0.19261833  0.16721450  1.0
  Ni  Ni256  1  0.52595167  0.52595167  0.16721450  1.0
  Ni  Ni257  1  0.52595167  0.85928500  0.16721450  1.0
  Ni  Ni258  1  0.85928500  0.19261833  0.16721450  1.0
  Ni  Ni259  1  0.85928500  0.52595167  0.16721450  1.0
  Ni  Ni260  1  0.85928500  0.85928500  0.16721450  1.0
  Ni  Ni261  1  0.02595167  0.02595167  0.11721450  1.0
  Ni  Ni262  1  0.02595167  0.35928500  0.11721450  1.0
  Ni  Ni263  1  0.02595167  0.69261833  0.11721450  1.0
  Ni  Ni264  1  0.35928500  0.02595167  0.11721450  1.0
  Ni  Ni265  1  0.35928500  0.35928500  0.11721450  1.0
  Ni  Ni266  1  0.35928500  0.69261833  0.11721450  1.0
  Ni  Ni267  1  0.69261833  0.02595167  0.11721450  1.0
  Ni  Ni268  1  0.69261833  0.35928500  0.11721450  1.0
  Ni  Ni269  1  0.69261833  0.69261833  0.11721450  1.0
  Ni  Ni270  1  0.30738167  0.30738167  0.18278550  1.0
  Ni  Ni271  1  0.30738167  0.64071500  0.18278550  1.0
  Ni  Ni272  1  0.30738167  0.97404833  0.18278550  1.0
  Ni  Ni273  1  0.64071500  0.30738167  0.18278550  1.0
  Ni  Ni274  1  0.64071500  0.64071500  0.18278550  1.0
  Ni  Ni275  1  0.64071500  0.97404833  0.18278550  1.0
  Ni  Ni276  1  0.97404833  0.30738167  0.18278550  1.0
  Ni  Ni277  1  0.97404833  0.64071500  0.18278550  1.0
  Ni  Ni278  1  0.97404833  0.97404833  0.18278550  1.0
  Ni  Ni279  1  0.14071500  0.14071500  0.13278550  1.0
  Ni  Ni280  1  0.14071500  0.47404833  0.13278550  1.0
  Ni  Ni281  1  0.14071500  0.80738167  0.13278550  1.0
  Ni  Ni282  1  0.47404833  0.14071500  0.13278550  1.0
  Ni  Ni283  1  0.47404833  0.47404833  0.13278550  1.0
  Ni  Ni284  1  0.47404833  0.80738167  0.13278550  1.0
  Ni  Ni285  1  0.80738167  0.14071500  0.13278550  1.0
  Ni  Ni286  1  0.80738167  0.47404833  0.13278550  1.0
  Ni  Ni287  1  0.80738167  0.80738167  0.13278550  1.0
  Zr  Zr288  1  0.27777778  0.27777778  0.24166667  1.0
  Zr  Zr289  1  0.27777778  0.61111111  0.24166667  1.0
  Zr  Zr290  1  0.27777778  0.94444444  0.24166667  1.0
  Zr  Zr291  1  0.61111111  0.27777778  0.24166667  1.0
  Zr  Zr292  1  0.61111111  0.61111111  0.24166667  1.0
  Zr  Zr293  1  0.61111111  0.94444444  0.24166667  1.0
  Zr  Zr294  1  0.94444444  0.27777778  0.24166667  1.0
  Zr  Zr295  1  0.94444444  0.61111111  0.24166667  1.0
  Zr  Zr296  1  0.94444444  0.94444444  0.24166667  1.0
  Zr  Zr297  1  0.11111111  0.11111111  0.29166667  1.0
  Zr  Zr298  1  0.11111111  0.44444444  0.29166667  1.0
  Zr  Zr299  1  0.11111111  0.77777778  0.29166667  1.0
  Zr  Zr300  1  0.44444444  0.11111111  0.29166667  1.0
  Zr  Zr301  1  0.44444444  0.44444444  0.29166667  1.0
  Zr  Zr302  1  0.44444444  0.77777778  0.29166667  1.0
  Zr  Zr303  1  0.77777778  0.11111111  0.29166667  1.0
  Zr  Zr304  1  0.77777778  0.44444444  0.29166667  1.0
  Zr  Zr305  1  0.77777778  0.77777778  0.29166667  1.0
  Zr  Zr306  1  0.22222222  0.22222222  0.20833333  1.0
  Zr  Zr307  1  0.22222222  0.55555556  0.20833333  1.0
  Zr  Zr308  1  0.22222222  0.88888889  0.20833333  1.0
  Zr  Zr309  1  0.55555556  0.22222222  0.20833333  1.0
  Zr  Zr310  1  0.55555556  0.55555556  0.20833333  1.0
  Zr  Zr311  1  0.55555556  0.88888889  0.20833333  1.0
  Zr  Zr312  1  0.88888889  0.22222222  0.20833333  1.0
  Zr  Zr313  1  0.88888889  0.55555556  0.20833333  1.0
  Zr  Zr314  1  0.88888889  0.88888889  0.20833333  1.0
  Zr  Zr315  1  0.05555556  0.05555556  0.25833333  1.0
  Zr  Zr316  1  0.05555556  0.38888889  0.25833333  1.0
  Zr  Zr317  1  0.05555556  0.72222222  0.25833333  1.0
  Zr  Zr318  1  0.38888889  0.05555556  0.25833333  1.0
  Zr  Zr319  1  0.38888889  0.38888889  0.25833333  1.0
  Zr  Zr320  1  0.38888889  0.72222222  0.25833333  1.0
  Zr  Zr321  1  0.72222222  0.05555556  0.25833333  1.0
  Zr  Zr322  1  0.72222222  0.38888889  0.25833333  1.0
  Zr  Zr323  1  0.72222222  0.72222222  0.25833333  1.0
  Ni  Ni324  1  0.19261833  0.03690833  0.21392750  1.0
  Ni  Ni325  1  0.19261833  0.37024167  0.21392750  1.0
  Ni  Ni326  1  0.19261833  0.70357500  0.21392750  1.0
  Ni  Ni327  1  0.52595167  0.03690833  0.21392750  1.0
  Ni  Ni328  1  0.52595167  0.37024167  0.21392750  1.0
  Ni  Ni329  1  0.52595167  0.70357500  0.21392750  1.0
  Ni  Ni330  1  0.85928500  0.03690833  0.21392750  1.0
  Ni  Ni331  1  0.85928500  0.37024167  0.21392750  1.0
  Ni  Ni332  1  0.85928500  0.70357500  0.21392750  1.0
  Ni  Ni333  1  0.02595167  0.20357500  0.26392750  1.0
  Ni  Ni334  1  0.02595167  0.53690833  0.26392750  1.0
  Ni  Ni335  1  0.02595167  0.87024167  0.26392750  1.0
  Ni  Ni336  1  0.35928500  0.20357500  0.26392750  1.0
  Ni  Ni337  1  0.35928500  0.53690833  0.26392750  1.0
  Ni  Ni338  1  0.35928500  0.87024167  0.26392750  1.0
  Ni  Ni339  1  0.69261833  0.20357500  0.26392750  1.0
  Ni  Ni340  1  0.69261833  0.53690833  0.26392750  1.0
  Ni  Ni341  1  0.69261833  0.87024167  0.26392750  1.0
  Ni  Ni342  1  0.21857000  0.06286000  0.25614200  1.0
  Ni  Ni343  1  0.21857000  0.39619333  0.25614200  1.0
  Ni  Ni344  1  0.21857000  0.72952667  0.25614200  1.0
  Ni  Ni345  1  0.55190333  0.06286000  0.25614200  1.0
  Ni  Ni346  1  0.55190333  0.39619333  0.25614200  1.0
  Ni  Ni347  1  0.55190333  0.72952667  0.25614200  1.0
  Ni  Ni348  1  0.88523667  0.06286000  0.25614200  1.0
  Ni  Ni349  1  0.88523667  0.39619333  0.25614200  1.0
  Ni  Ni350  1  0.88523667  0.72952667  0.25614200  1.0
  Ni  Ni351  1  0.05190333  0.22952667  0.20614200  1.0
  Ni  Ni352  1  0.05190333  0.56286000  0.20614200  1.0
  Ni  Ni353  1  0.05190333  0.89619333  0.20614200  1.0
  Ni  Ni354  1  0.38523667  0.22952667  0.20614200  1.0
  Ni  Ni355  1  0.38523667  0.56286000  0.20614200  1.0
  Ni  Ni356  1  0.38523667  0.89619333  0.20614200  1.0
  Ni  Ni357  1  0.71857000  0.22952667  0.20614200  1.0
  Ni  Ni358  1  0.71857000  0.56286000  0.20614200  1.0
  Ni  Ni359  1  0.71857000  0.89619333  0.20614200  1.0
  Ni  Ni360  1  0.30738167  0.12975833  0.23607250  1.0
  Ni  Ni361  1  0.30738167  0.46309167  0.23607250  1.0
  Ni  Ni362  1  0.30738167  0.79642500  0.23607250  1.0
  Ni  Ni363  1  0.64071500  0.12975833  0.23607250  1.0
  Ni  Ni364  1  0.64071500  0.46309167  0.23607250  1.0
  Ni  Ni365  1  0.64071500  0.79642500  0.23607250  1.0
  Ni  Ni366  1  0.97404833  0.12975833  0.23607250  1.0
  Ni  Ni367  1  0.97404833  0.46309167  0.23607250  1.0
  Ni  Ni368  1  0.97404833  0.79642500  0.23607250  1.0
  Ni  Ni369  1  0.14071500  0.29642500  0.28607250  1.0
  Ni  Ni370  1  0.14071500  0.62975833  0.28607250  1.0
  Ni  Ni371  1  0.14071500  0.96309167  0.28607250  1.0
  Ni  Ni372  1  0.47404833  0.29642500  0.28607250  1.0
  Ni  Ni373  1  0.47404833  0.62975833  0.28607250  1.0
  Ni  Ni374  1  0.47404833  0.96309167  0.28607250  1.0
  Ni  Ni375  1  0.80738167  0.29642500  0.28607250  1.0
  Ni  Ni376  1  0.80738167  0.62975833  0.28607250  1.0
  Ni  Ni377  1  0.80738167  0.96309167  0.28607250  1.0
  Ni  Ni378  1  0.28143000  0.10380667  0.29385800  1.0
  Ni  Ni379  1  0.28143000  0.43714000  0.29385800  1.0
  Ni  Ni380  1  0.28143000  0.77047333  0.29385800  1.0
  Ni  Ni381  1  0.61476333  0.10380667  0.29385800  1.0
  Ni  Ni382  1  0.61476333  0.43714000  0.29385800  1.0
  Ni  Ni383  1  0.61476333  0.77047333  0.29385800  1.0
  Ni  Ni384  1  0.94809667  0.10380667  0.29385800  1.0
  Ni  Ni385  1  0.94809667  0.43714000  0.29385800  1.0
  Ni  Ni386  1  0.94809667  0.77047333  0.29385800  1.0
  Ni  Ni387  1  0.11476333  0.27047333  0.24385800  1.0
  Ni  Ni388  1  0.11476333  0.60380667  0.24385800  1.0
  Ni  Ni389  1  0.11476333  0.93714000  0.24385800  1.0
  Ni  Ni390  1  0.44809667  0.27047333  0.24385800  1.0
  Ni  Ni391  1  0.44809667  0.60380667  0.24385800  1.0
  Ni  Ni392  1  0.44809667  0.93714000  0.24385800  1.0
  Ni  Ni393  1  0.78143000  0.27047333  0.24385800  1.0
  Ni  Ni394  1  0.78143000  0.60380667  0.24385800  1.0
  Ni  Ni395  1  0.78143000  0.93714000  0.24385800  1.0
  Ni  Ni396  1  0.19261833  0.19261833  0.26721450  1.0
  Ni  Ni397  1  0.19261833  0.52595167  0.26721450  1.0
  Ni  Ni398  1  0.19261833  0.85928500  0.26721450  1.0
  Ni  Ni399  1  0.52595167  0.19261833  0.26721450  1.0
  Ni  Ni400  1  0.52595167  0.52595167  0.26721450  1.0
  Ni  Ni401  1  0.52595167  0.85928500  0.26721450  1.0
  Ni  Ni402  1  0.85928500  0.19261833  0.26721450  1.0
  Ni  Ni403  1  0.85928500  0.52595167  0.26721450  1.0
  Ni  Ni404  1  0.85928500  0.85928500  0.26721450  1.0
  Ni  Ni405  1  0.02595167  0.02595167  0.21721450  1.0
  Ni  Ni406  1  0.02595167  0.35928500  0.21721450  1.0
  Ni  Ni407  1  0.02595167  0.69261833  0.21721450  1.0
  Ni  Ni408  1  0.35928500  0.02595167  0.21721450  1.0
  Ni  Ni409  1  0.35928500  0.35928500  0.21721450  1.0
  Ni  Ni410  1  0.35928500  0.69261833  0.21721450  1.0
  Ni  Ni411  1  0.69261833  0.02595167  0.21721450  1.0
  Ni  Ni412  1  0.69261833  0.35928500  0.21721450  1.0
  Ni  Ni413  1  0.69261833  0.69261833  0.21721450  1.0
  Ni  Ni414  1  0.30738167  0.30738167  0.28278550  1.0
  Ni  Ni415  1  0.30738167  0.64071500  0.28278550  1.0
  Ni  Ni416  1  0.30738167  0.97404833  0.28278550  1.0
  Ni  Ni417  1  0.64071500  0.30738167  0.28278550  1.0
  Ni  Ni418  1  0.64071500  0.64071500  0.28278550  1.0
  Ni  Ni419  1  0.64071500  0.97404833  0.28278550  1.0
  Ni  Ni420  1  0.97404833  0.30738167  0.28278550  1.0
  Ni  Ni421  1  0.97404833  0.64071500  0.28278550  1.0
  Ni  Ni422  1  0.97404833  0.97404833  0.28278550  1.0
  Ni  Ni423  1  0.14071500  0.14071500  0.23278550  1.0
  Ni  Ni424  1  0.14071500  0.47404833  0.23278550  1.0
  Ni  Ni425  1  0.14071500  0.80738167  0.23278550  1.0
  Ni  Ni426  1  0.47404833  0.14071500  0.23278550  1.0
  Ni  Ni427  1  0.47404833  0.47404833  0.23278550  1.0
  Ni  Ni428  1  0.47404833  0.80738167  0.23278550  1.0
  Ni  Ni429  1  0.80738167  0.14071500  0.23278550  1.0
  Ni  Ni430  1  0.80738167  0.47404833  0.23278550  1.0
  Ni  Ni431  1  0.80738167  0.80738167  0.23278550  1.0
  Zr  Zr432  1  0.27777778  0.27777778  0.34166667  1.0
  Zr  Zr433  1  0.27777778  0.61111111  0.34166667  1.0
  Zr  Zr434  1  0.27777778  0.94444444  0.34166667  1.0
  Zr  Zr435  1  0.61111111  0.27777778  0.34166667  1.0
  Zr  Zr436  1  0.61111111  0.61111111  0.34166667  1.0
  Zr  Zr437  1  0.61111111  0.94444444  0.34166667  1.0
  Zr  Zr438  1  0.94444444  0.27777778  0.34166667  1.0
  Zr  Zr439  1  0.94444444  0.61111111  0.34166667  1.0
  Zr  Zr440  1  0.94444444  0.94444444  0.34166667  1.0
  Zr  Zr441  1  0.11111111  0.11111111  0.39166667  1.0
  Zr  Zr442  1  0.11111111  0.44444444  0.39166667  1.0
  Zr  Zr443  1  0.11111111  0.77777778  0.39166667  1.0
  Zr  Zr444  1  0.44444444  0.11111111  0.39166667  1.0
  Zr  Zr445  1  0.44444444  0.44444444  0.39166667  1.0
  Zr  Zr446  1  0.44444444  0.77777778  0.39166667  1.0
  Zr  Zr447  1  0.77777778  0.11111111  0.39166667  1.0
  Zr  Zr448  1  0.77777778  0.44444444  0.39166667  1.0
  Zr  Zr449  1  0.77777778  0.77777778  0.39166667  1.0
  Zr  Zr450  1  0.22222222  0.22222222  0.30833333  1.0
  Zr  Zr451  1  0.22222222  0.55555556  0.30833333  1.0
  Zr  Zr452  1  0.22222222  0.88888889  0.30833333  1.0
  Zr  Zr453  1  0.55555556  0.22222222  0.30833333  1.0
  Zr  Zr454  1  0.55555556  0.55555556  0.30833333  1.0
  Zr  Zr455  1  0.55555556  0.88888889  0.30833333  1.0
  Zr  Zr456  1  0.88888889  0.22222222  0.30833333  1.0
  Zr  Zr457  1  0.88888889  0.55555556  0.30833333  1.0
  Zr  Zr458  1  0.88888889  0.88888889  0.30833333  1.0
  Zr  Zr459  1  0.05555556  0.05555556  0.35833333  1.0
  Zr  Zr460  1  0.05555556  0.38888889  0.35833333  1.0
  Zr  Zr461  1  0.05555556  0.72222222  0.35833333  1.0
  Zr  Zr462  1  0.38888889  0.05555556  0.35833333  1.0
  Zr  Zr463  1  0.38888889  0.38888889  0.35833333  1.0
  Zr  Zr464  1  0.38888889  0.72222222  0.35833333  1.0
  Zr  Zr465  1  0.72222222  0.05555556  0.35833333  1.0
  Zr  Zr466  1  0.72222222  0.38888889  0.35833333  1.0
  Zr  Zr467  1  0.72222222  0.72222222  0.35833333  1.0
  Ni  Ni468  1  0.19261833  0.03690833  0.31392750  1.0
  Ni  Ni469  1  0.19261833  0.37024167  0.31392750  1.0
  Ni  Ni470  1  0.19261833  0.70357500  0.31392750  1.0
  Ni  Ni471  1  0.52595167  0.03690833  0.31392750  1.0
  Ni  Ni472  1  0.52595167  0.37024167  0.31392750  1.0
  Ni  Ni473  1  0.52595167  0.70357500  0.31392750  1.0
  Ni  Ni474  1  0.85928500  0.03690833  0.31392750  1.0
  Ni  Ni475  1  0.85928500  0.37024167  0.31392750  1.0
  Ni  Ni476  1  0.85928500  0.70357500  0.31392750  1.0
  Ni  Ni477  1  0.02595167  0.20357500  0.36392750  1.0
  Ni  Ni478  1  0.02595167  0.53690833  0.36392750  1.0
  Ni  Ni479  1  0.02595167  0.87024167  0.36392750  1.0
  Ni  Ni480  1  0.35928500  0.20357500  0.36392750  1.0
  Ni  Ni481  1  0.35928500  0.53690833  0.36392750  1.0
  Ni  Ni482  1  0.35928500  0.87024167  0.36392750  1.0
  Ni  Ni483  1  0.69261833  0.20357500  0.36392750  1.0
  Ni  Ni484  1  0.69261833  0.53690833  0.36392750  1.0
  Ni  Ni485  1  0.69261833  0.87024167  0.36392750  1.0
  Ni  Ni486  1  0.21857000  0.06286000  0.35614200  1.0
  Ni  Ni487  1  0.21857000  0.39619333  0.35614200  1.0
  Ni  Ni488  1  0.21857000  0.72952667  0.35614200  1.0
  Ni  Ni489  1  0.55190333  0.06286000  0.35614200  1.0
  Ni  Ni490  1  0.55190333  0.39619333  0.35614200  1.0
  Ni  Ni491  1  0.55190333  0.72952667  0.35614200  1.0
  Ni  Ni492  1  0.88523667  0.06286000  0.35614200  1.0
  Ni  Ni493  1  0.88523667  0.39619333  0.35614200  1.0
  Ni  Ni494  1  0.88523667  0.72952667  0.35614200  1.0
  Ni  Ni495  1  0.05190333  0.22952667  0.30614200  1.0
  Ni  Ni496  1  0.05190333  0.56286000  0.30614200  1.0
  Ni  Ni497  1  0.05190333  0.89619333  0.30614200  1.0
  Ni  Ni498  1  0.38523667  0.22952667  0.30614200  1.0
  Ni  Ni499  1  0.38523667  0.56286000  0.30614200  1.0
  Ni  Ni500  1  0.38523667  0.89619333  0.30614200  1.0
  Ni  Ni501  1  0.71857000  0.22952667  0.30614200  1.0
  Ni  Ni502  1  0.71857000  0.56286000  0.30614200  1.0
  Ni  Ni503  1  0.71857000  0.89619333  0.30614200  1.0
  Ni  Ni504  1  0.30738167  0.12975833  0.33607250  1.0
  Ni  Ni505  1  0.30738167  0.46309167  0.33607250  1.0
  Ni  Ni506  1  0.30738167  0.79642500  0.33607250  1.0
  Ni  Ni507  1  0.64071500  0.12975833  0.33607250  1.0
  Ni  Ni508  1  0.64071500  0.46309167  0.33607250  1.0
  Ni  Ni509  1  0.64071500  0.79642500  0.33607250  1.0
  Ni  Ni510  1  0.97404833  0.12975833  0.33607250  1.0
  Ni  Ni511  1  0.97404833  0.46309167  0.33607250  1.0
  Ni  Ni512  1  0.97404833  0.79642500  0.33607250  1.0
  Ni  Ni513  1  0.14071500  0.29642500  0.38607250  1.0
  Ni  Ni514  1  0.14071500  0.62975833  0.38607250  1.0
  Ni  Ni515  1  0.14071500  0.96309167  0.38607250  1.0
  Ni  Ni516  1  0.47404833  0.29642500  0.38607250  1.0
  Ni  Ni517  1  0.47404833  0.62975833  0.38607250  1.0
  Ni  Ni518  1  0.47404833  0.96309167  0.38607250  1.0
  Ni  Ni519  1  0.80738167  0.29642500  0.38607250  1.0
  Ni  Ni520  1  0.80738167  0.62975833  0.38607250  1.0
  Ni  Ni521  1  0.80738167  0.96309167  0.38607250  1.0
  Ni  Ni522  1  0.28143000  0.10380667  0.39385800  1.0
  Ni  Ni523  1  0.28143000  0.43714000  0.39385800  1.0
  Ni  Ni524  1  0.28143000  0.77047333  0.39385800  1.0
  Ni  Ni525  1  0.61476333  0.10380667  0.39385800  1.0
  Ni  Ni526  1  0.61476333  0.43714000  0.39385800  1.0
  Ni  Ni527  1  0.61476333  0.77047333  0.39385800  1.0
  Ni  Ni528  1  0.94809667  0.10380667  0.39385800  1.0
  Ni  Ni529  1  0.94809667  0.43714000  0.39385800  1.0
  Ni  Ni530  1  0.94809667  0.77047333  0.39385800  1.0
  Ni  Ni531  1  0.11476333  0.27047333  0.34385800  1.0
  Ni  Ni532  1  0.11476333  0.60380667  0.34385800  1.0
  Ni  Ni533  1  0.11476333  0.93714000  0.34385800  1.0
  Ni  Ni534  1  0.44809667  0.27047333  0.34385800  1.0
  Ni  Ni535  1  0.44809667  0.60380667  0.34385800  1.0
  Ni  Ni536  1  0.44809667  0.93714000  0.34385800  1.0
  Ni  Ni537  1  0.78143000  0.27047333  0.34385800  1.0
  Ni  Ni538  1  0.78143000  0.60380667  0.34385800  1.0
  Ni  Ni539  1  0.78143000  0.93714000  0.34385800  1.0
  Ni  Ni540  1  0.19261833  0.19261833  0.36721450  1.0
  Ni  Ni541  1  0.19261833  0.52595167  0.36721450  1.0
  Ni  Ni542  1  0.19261833  0.85928500  0.36721450  1.0
  Ni  Ni543  1  0.52595167  0.19261833  0.36721450  1.0
  Ni  Ni544  1  0.52595167  0.52595167  0.36721450  1.0
  Ni  Ni545  1  0.52595167  0.85928500  0.36721450  1.0
  Ni  Ni546  1  0.85928500  0.19261833  0.36721450  1.0
  Ni  Ni547  1  0.85928500  0.52595167  0.36721450  1.0
  Ni  Ni548  1  0.85928500  0.85928500  0.36721450  1.0
  Ni  Ni549  1  0.02595167  0.02595167  0.31721450  1.0
  Ni  Ni550  1  0.02595167  0.35928500  0.31721450  1.0
  Ni  Ni551  1  0.02595167  0.69261833  0.31721450  1.0
  Ni  Ni552  1  0.35928500  0.02595167  0.31721450  1.0
  Ni  Ni553  1  0.35928500  0.35928500  0.31721450  1.0
  Ni  Ni554  1  0.35928500  0.69261833  0.31721450  1.0
  Ni  Ni555  1  0.69261833  0.02595167  0.31721450  1.0
  Ni  Ni556  1  0.69261833  0.35928500  0.31721450  1.0
  Ni  Ni557  1  0.69261833  0.69261833  0.31721450  1.0
  Ni  Ni558  1  0.30738167  0.30738167  0.38278550  1.0
  Ni  Ni559  1  0.30738167  0.64071500  0.38278550  1.0
  Ni  Ni560  1  0.30738167  0.97404833  0.38278550  1.0
  Ni  Ni561  1  0.64071500  0.30738167  0.38278550  1.0
  Ni  Ni562  1  0.64071500  0.64071500  0.38278550  1.0
  Ni  Ni563  1  0.64071500  0.97404833  0.38278550  1.0
  Ni  Ni564  1  0.97404833  0.30738167  0.38278550  1.0
  Ni  Ni565  1  0.97404833  0.64071500  0.38278550  1.0
  Ni  Ni566  1  0.97404833  0.97404833  0.38278550  1.0
  Ni  Ni567  1  0.14071500  0.14071500  0.33278550  1.0
  Ni  Ni568  1  0.14071500  0.47404833  0.33278550  1.0
  Ni  Ni569  1  0.14071500  0.80738167  0.33278550  1.0
  Ni  Ni570  1  0.47404833  0.14071500  0.33278550  1.0
  Ni  Ni571  1  0.47404833  0.47404833  0.33278550  1.0
  Ni  Ni572  1  0.47404833  0.80738167  0.33278550  1.0
  Ni  Ni573  1  0.80738167  0.14071500  0.33278550  1.0
  Ni  Ni574  1  0.80738167  0.47404833  0.33278550  1.0
  Ni  Ni575  1  0.80738167  0.80738167  0.33278550  1.0
