# generated using pymatgen
data_ZrNi
_symmetry_space_group_name_H-M   'P 1'
_cell_length_a   12.25667700
_cell_length_b   9.91707000
_cell_length_c   36.75784973
_cell_angle_alpha   71.65365081
_cell_angle_beta   90.00000000
_cell_angle_gamma   90.00000000
_symmetry_Int_Tables_number   1
_chemical_formula_structural   ZrNi
_chemical_formula_sum   'Zr54 Ni54'
_cell_volume   4240.82893173
_cell_formula_units_Z   54
loop_
 _symmetry_equiv_pos_site_id
 _symmetry_equiv_pos_as_xyz
  1  'x, y, z'
loop_
 _atom_site_type_symbol
 _atom_site_label
 _atom_site_symmetry_multiplicity
 _atom_site_fract_x
 _atom_site_fract_y
 _atom_site_fract_z
 _atom_site_occupancy
  Zr  Zr0  1  0.08333333  0.12018867  0.03983829  1.0
  Zr  Zr1  1  0.08333333  0.45352200  0.03983829  1.0
  Zr  Zr2  1  0.08333333  0.78685533  0.03983829  1.0
  Zr  Zr3  1  0.41666667  0.12018867  0.03983829  1.0
  Zr  Zr4  1  0.41666667  0.45352200  0.03983829  1.0
  Zr  Zr5  1  0.41666667  0.78685533  0.03983829  1.0
  Zr  Zr6  1  0.75000000  0.12018867  0.03983829  1.0
  Zr  Zr7  1  0.75000000  0.45352200  0.03983829  1.0
  Zr  Zr8  1  0.75000000  0.78685533  0.03983829  1.0
  Zr  Zr9  1  0.25000000  0.21314467  0.10301886  1.0
  Zr  Zr10  1  0.25000000  0.54647800  0.10301886  1.0
  Zr  Zr11  1  0.25000000  0.87981133  0.10301886  1.0
  Zr  Zr12  1  0.58333333  0.21314467  0.10301886  1.0
  Zr  Zr13  1  0.58333333  0.54647800  0.10301886  1.0
  Zr  Zr14  1  0.58333333  0.87981133  0.10301886  1.0
  Zr  Zr15  1  0.91666667  0.21314467  0.10301886  1.0
  Zr  Zr16  1  0.91666667  0.54647800  0.10301886  1.0
  Zr  Zr17  1  0.91666667  0.87981133  0.10301886  1.0
  Ni  Ni18  1  0.08333333  0.02758200  0.11921543  1.0
  Ni  Ni19  1  0.08333333  0.36091533  0.11921543  1.0
  Ni  Ni20  1  0.08333333  0.69424867  0.11921543  1.0
  Ni  Ni21  1  0.41666667  0.02758200  0.11921543  1.0
  Ni  Ni22  1  0.41666667  0.36091533  0.11921543  1.0
  Ni  Ni23  1  0.41666667  0.69424867  0.11921543  1.0
  Ni  Ni24  1  0.75000000  0.02758200  0.11921543  1.0
  Ni  Ni25  1  0.75000000  0.36091533  0.11921543  1.0
  Ni  Ni26  1  0.75000000  0.69424867  0.11921543  1.0
  Ni  Ni27  1  0.25000000  0.30575133  0.02364171  1.0
  Ni  Ni28  1  0.25000000  0.63908467  0.02364171  1.0
  Ni  Ni29  1  0.25000000  0.97241800  0.02364171  1.0
  Ni  Ni30  1  0.58333333  0.30575133  0.02364171  1.0
  Ni  Ni31  1  0.58333333  0.63908467  0.02364171  1.0
  Ni  Ni32  1  0.58333333  0.97241800  0.02364171  1.0
  Ni  Ni33  1  0.91666667  0.30575133  0.02364171  1.0
  Ni  Ni34  1  0.91666667  0.63908467  0.02364171  1.0
  Ni  Ni35  1  0.91666667  0.97241800  0.02364171  1.0
  Zr  Zr36  1  0.08333333  0.12018867  0.18269543  1.0
  Zr  Zr37  1  0.08333333  0.45352200  0.18269543  1.0
  Zr  Zr38  1  0.08333333  0.78685533  0.18269543  1.0
  Zr  Zr39  1  0.41666667  0.12018867  0.18269543  1.0
  Zr  Zr40  1  0.41666667  0.45352200  0.18269543  1.0
  Zr  Zr41  1  0.41666667  0.78685533  0.18269543  1.0
  Zr  Zr42  1  0.75000000  0.12018867  0.18269543  1.0
  Zr  Zr43  1  0.75000000  0.45352200  0.18269543  1.0
  Zr  Zr44  1  0.75000000  0.78685533  0.18269543  1.0
  Zr  Zr45  1  0.25000000  0.21314467  0.24587600  1.0
  Zr  Zr46  1  0.25000000  0.54647800  0.24587600  1.0
  Zr  Zr47  1  0.25000000  0.87981133  0.24587600  1.0
  Zr  Zr48  1  0.58333333  0.21314467  0.24587600  1.0
  Zr  Zr49  1  0.58333333  0.54647800  0.24587600  1.0
  Zr  Zr50  1  0.58333333  0.87981133  0.24587600  1.0
  Zr  Zr51  1  0.91666667  0.21314467  0.24587600  1.0
  Zr  Zr52  1  0.91666667  0.54647800  0.24587600  1.0
  Zr  Zr53  1  0.91666667  0.87981133  0.24587600  1.0
  Ni  Ni54  1  0.08333333  0.02758200  0.26207257  1.0
  Ni  Ni55  1  0.08333333  0.36091533  0.26207257  1.0
  Ni  Ni56  1  0.08333333  0.69424867  0.26207257  1.0
  Ni  Ni57  1  0.41666667  0.02758200  0.26207257  1.0
  Ni  Ni58  1  0.41666667  0.36091533  0.26207257  1.0
  Ni  Ni59  1  0.41666667  0.69424867  0.26207257  1.0
  Ni  Ni60  1  0.75000000  0.02758200  0.26207257  1.0
  Ni  Ni61  1  0.75000000  0.36091533  0.26207257  1.0
  Ni  Ni62  1  0.75000000  0.69424867  0.26207257  1.0
  Ni  Ni63  1  0.25000000  0.30575133  0.16649886  1.0
  Ni  Ni64  1  0.25000000  0.63908467  0.16649886  1.0
  Ni  Ni65  1  0.25000000  0.97241800  0.16649886  1.0
  Ni  Ni66  1  0.58333333  0.30575133  0.16649886  1.0
  Ni  Ni67  1  0.58333333  0.63908467  0.16649886  1.0
  Ni  Ni68  1  0.58333333  0.97241800  0.16649886  1.0
  Ni  Ni69  1  0.91666667  0.30575133  0.16649886  1.0
  Ni  Ni70  1  0.91666667  0.63908467  0.16649886  1.0
  Ni  Ni71  1  0.91666667  0.97241800  0.16649886  1.0
  Zr  Zr72  1  0.08333333  0.12018867  0.32555257  1.0
  Zr  Zr73  1  0.08333333  0.45352200  0.32555257  1.0
  Zr  Zr74  1  0.08333333  0.78685533  0.32555257  1.0
  Zr  Zr75  1  0.41666667  0.12018867  0.32555257  1.0
  Zr  Zr76  1  0.41666667  0.45352200  0.32555257  1.0
  Zr  Zr77  1  0.41666667  0.78685533  0.32555257  1.0
  Zr  Zr78  1  0.75000000  0.12018867  0.32555257  1.0
  Zr  Zr79  1  0.75000000  0.45352200  0.32555257  1.0
  Zr  Zr80  1  0.75000000  0.78685533  0.32555257  1.0
  Zr  Zr81  1  0.25000000  0.21314467  0.38873314  1.0
  Zr  Zr82  1  0.25000000  0.54647800  0.38873314  1.0
  Zr  Zr83  1  0.25000000  0.87981133  0.38873314  1.0
  Zr  Zr84  1  0.58333333  0.21314467  0.38873314  1.0
  Zr  Zr85  1  0.58333333  0.54647800  0.38873314  1.0
  Zr  Zr86  1  0.58333333  0.87981133  0.38873314  1.0
  Zr  Zr87  1  0.91666667  0.21314467  0.38873314  1.0
  Zr  Zr88  1  0.91666667  0.54647800  0.38873314  1.0
  Zr  Zr89  1  0.91666667  0.87981133  0.38873314  1.0
  Ni  Ni90  1  0.08333333  0.02758200  0.40492971  1.0
  Ni  Ni91  1  0.08333333  0.36091533  0.40492971  1.0
  Ni  Ni92  1  0.08333333  0.69424867  0.40492971  1.0
  Ni  Ni93  1  0.41666667  0.02758200  0.40492971  1.0
  Ni  Ni94  1  0.41666667  0.36091533  0.40492971  1.0
  Ni  Ni95  1  0.41666667  0.69424867  0.40492971  1.0
  Ni  Ni96  1  0.75000000  0.02758200  0.40492971  1.0
  Ni  Ni97  1  0.75000000  0.36091533  0.40492971  1.0
  Ni  Ni98  1  0.75000000  0.69424867  0.40492971  1.0
  Ni  Ni99  1  0.25000000  0.30575133  0.30935600  1.0
  Ni  Ni100  1  0.25000000  0.63908467  0.30935600  1.0
  Ni  Ni101  1  0.25000000  0.97241800  0.30935600  1.0
  Ni  Ni102  1  0.58333333  0.30575133  0.30935600  1.0
  Ni  Ni103  1  0.58333333  0.63908467  0.30935600  1.0
  Ni  Ni104  1  0.58333333  0.97241800  0.30935600  1.0
  Ni  Ni105  1  0.91666667  0.30575133  0.30935600  1.0
  Ni  Ni106  1  0.91666667  0.63908467  0.30935600  1.0
  Ni  Ni107  1  0.91666667  0.97241800  0.30935600  1.0
