# generated using pymatgen
data_ZrNi
_symmetry_space_group_name_H-M   'P 1'
_cell_length_a   45.13113990
_cell_length_b   19.95982499
_cell_length_c   57.19782600
_cell_angle_alpha   52.11581592
_cell_angle_beta   90.00000000
_cell_angle_gamma   44.16740426
_symmetry_Int_Tables_number   1
_chemical_formula_structural   ZrNi
_chemical_formula_sum   'Zr216 Ni216'
_cell_volume   16963.31572691
_cell_formula_units_Z   216
loop_
 _symmetry_equiv_pos_site_id
 _symmetry_equiv_pos_as_xyz
  1  'x, y, z'
loop_
 _atom_site_type_symbol
 _atom_site_label
 _atom_site_symmetry_multiplicity
 _atom_site_fract_x
 _atom_site_fract_y
 _atom_site_fract_z
 _atom_site_occupancy
  Zr  Zr0  1  0.27323900  0.27323900  0.06644879  1.0
  Zr  Zr1  1  0.27323900  0.60657233  0.06644879  1.0
  Zr  Zr2  1  0.27323900  0.93990567  0.06644879  1.0
  Zr  Zr3  1  0.60657233  0.27323900  0.06644879  1.0
  Zr  Zr4  1  0.60657233  0.60657233  0.06644879  1.0
  Zr  Zr5  1  0.60657233  0.93990567  0.06644879  1.0
  Zr  Zr6  1  0.93990567  0.27323900  0.06644879  1.0
  Zr  Zr7  1  0.93990567  0.60657233  0.06644879  1.0
  Zr  Zr8  1  0.93990567  0.93990567  0.06644879  1.0
  Zr  Zr9  1  0.10657233  0.10657233  0.03073450  1.0
  Zr  Zr10  1  0.10657233  0.43990567  0.03073450  1.0
  Zr  Zr11  1  0.10657233  0.77323900  0.03073450  1.0
  Zr  Zr12  1  0.43990567  0.10657233  0.03073450  1.0
  Zr  Zr13  1  0.43990567  0.43990567  0.03073450  1.0
  Zr  Zr14  1  0.43990567  0.77323900  0.03073450  1.0
  Zr  Zr15  1  0.77323900  0.10657233  0.03073450  1.0
  Zr  Zr16  1  0.77323900  0.43990567  0.03073450  1.0
  Zr  Zr17  1  0.77323900  0.77323900  0.03073450  1.0
  Zr  Zr18  1  0.22676100  0.22676100  0.04069407  1.0
  Zr  Zr19  1  0.22676100  0.56009433  0.04069407  1.0
  Zr  Zr20  1  0.22676100  0.89342767  0.04069407  1.0
  Zr  Zr21  1  0.56009433  0.22676100  0.04069407  1.0
  Zr  Zr22  1  0.56009433  0.56009433  0.04069407  1.0
  Zr  Zr23  1  0.56009433  0.89342767  0.04069407  1.0
  Zr  Zr24  1  0.89342767  0.22676100  0.04069407  1.0
  Zr  Zr25  1  0.89342767  0.56009433  0.04069407  1.0
  Zr  Zr26  1  0.89342767  0.89342767  0.04069407  1.0
  Zr  Zr27  1  0.06009433  0.06009433  0.00497979  1.0
  Zr  Zr28  1  0.06009433  0.39342767  0.00497979  1.0
  Zr  Zr29  1  0.06009433  0.72676100  0.00497979  1.0
  Zr  Zr30  1  0.39342767  0.06009433  0.00497979  1.0
  Zr  Zr31  1  0.39342767  0.39342767  0.00497979  1.0
  Zr  Zr32  1  0.39342767  0.72676100  0.00497979  1.0
  Zr  Zr33  1  0.72676100  0.06009433  0.00497979  1.0
  Zr  Zr34  1  0.72676100  0.39342767  0.00497979  1.0
  Zr  Zr35  1  0.72676100  0.72676100  0.00497979  1.0
  Ni  Ni36  1  0.31954233  0.31954233  0.05652664  1.0
  Ni  Ni37  1  0.31954233  0.65287567  0.05652664  1.0
  Ni  Ni38  1  0.31954233  0.98620900  0.05652664  1.0
  Ni  Ni39  1  0.65287567  0.31954233  0.05652664  1.0
  Ni  Ni40  1  0.65287567  0.65287567  0.05652664  1.0
  Ni  Ni41  1  0.65287567  0.98620900  0.05652664  1.0
  Ni  Ni42  1  0.98620900  0.31954233  0.05652664  1.0
  Ni  Ni43  1  0.98620900  0.65287567  0.05652664  1.0
  Ni  Ni44  1  0.98620900  0.98620900  0.05652664  1.0
  Ni  Ni45  1  0.15287567  0.15287567  0.02081236  1.0
  Ni  Ni46  1  0.15287567  0.48620900  0.02081236  1.0
  Ni  Ni47  1  0.15287567  0.81954233  0.02081236  1.0
  Ni  Ni48  1  0.48620900  0.15287567  0.02081236  1.0
  Ni  Ni49  1  0.48620900  0.48620900  0.02081236  1.0
  Ni  Ni50  1  0.48620900  0.81954233  0.02081236  1.0
  Ni  Ni51  1  0.81954233  0.15287567  0.02081236  1.0
  Ni  Ni52  1  0.81954233  0.48620900  0.02081236  1.0
  Ni  Ni53  1  0.81954233  0.81954233  0.02081236  1.0
  Ni  Ni54  1  0.18045767  0.18045767  0.05061621  1.0
  Ni  Ni55  1  0.18045767  0.51379100  0.05061621  1.0
  Ni  Ni56  1  0.18045767  0.84712433  0.05061621  1.0
  Ni  Ni57  1  0.51379100  0.18045767  0.05061621  1.0
  Ni  Ni58  1  0.51379100  0.51379100  0.05061621  1.0
  Ni  Ni59  1  0.51379100  0.84712433  0.05061621  1.0
  Ni  Ni60  1  0.84712433  0.18045767  0.05061621  1.0
  Ni  Ni61  1  0.84712433  0.51379100  0.05061621  1.0
  Ni  Ni62  1  0.84712433  0.84712433  0.05061621  1.0
  Ni  Ni63  1  0.01379100  0.01379100  0.01490193  1.0
  Ni  Ni64  1  0.01379100  0.34712433  0.01490193  1.0
  Ni  Ni65  1  0.01379100  0.68045767  0.01490193  1.0
  Ni  Ni66  1  0.34712433  0.01379100  0.01490193  1.0
  Ni  Ni67  1  0.34712433  0.34712433  0.01490193  1.0
  Ni  Ni68  1  0.34712433  0.68045767  0.01490193  1.0
  Ni  Ni69  1  0.68045767  0.01379100  0.01490193  1.0
  Ni  Ni70  1  0.68045767  0.34712433  0.01490193  1.0
  Ni  Ni71  1  0.68045767  0.68045767  0.01490193  1.0
  Zr  Zr72  1  0.27323900  0.27323900  0.13787736  1.0
  Zr  Zr73  1  0.27323900  0.60657233  0.13787736  1.0
  Zr  Zr74  1  0.27323900  0.93990567  0.13787736  1.0
  Zr  Zr75  1  0.60657233  0.27323900  0.13787736  1.0
  Zr  Zr76  1  0.60657233  0.60657233  0.13787736  1.0
  Zr  Zr77  1  0.60657233  0.93990567  0.13787736  1.0
  Zr  Zr78  1  0.93990567  0.27323900  0.13787736  1.0
  Zr  Zr79  1  0.93990567  0.60657233  0.13787736  1.0
  Zr  Zr80  1  0.93990567  0.93990567  0.13787736  1.0
  Zr  Zr81  1  0.10657233  0.10657233  0.10216307  1.0
  Zr  Zr82  1  0.10657233  0.43990567  0.10216307  1.0
  Zr  Zr83  1  0.10657233  0.77323900  0.10216307  1.0
  Zr  Zr84  1  0.43990567  0.10657233  0.10216307  1.0
  Zr  Zr85  1  0.43990567  0.43990567  0.10216307  1.0
  Zr  Zr86  1  0.43990567  0.77323900  0.10216307  1.0
  Zr  Zr87  1  0.77323900  0.10657233  0.10216307  1.0
  Zr  Zr88  1  0.77323900  0.43990567  0.10216307  1.0
  Zr  Zr89  1  0.77323900  0.77323900  0.10216307  1.0
  Zr  Zr90  1  0.22676100  0.22676100  0.11212264  1.0
  Zr  Zr91  1  0.22676100  0.56009433  0.11212264  1.0
  Zr  Zr92  1  0.22676100  0.89342767  0.11212264  1.0
  Zr  Zr93  1  0.56009433  0.22676100  0.11212264  1.0
  Zr  Zr94  1  0.56009433  0.56009433  0.11212264  1.0
  Zr  Zr95  1  0.56009433  0.89342767  0.11212264  1.0
  Zr  Zr96  1  0.89342767  0.22676100  0.11212264  1.0
  Zr  Zr97  1  0.89342767  0.56009433  0.11212264  1.0
  Zr  Zr98  1  0.89342767  0.89342767  0.11212264  1.0
  Zr  Zr99  1  0.06009433  0.06009433  0.07640836  1.0
  Zr  Zr100  1  0.06009433  0.39342767  0.07640836  1.0
  Zr  Zr101  1  0.06009433  0.72676100  0.07640836  1.0
  Zr  Zr102  1  0.39342767  0.06009433  0.07640836  1.0
  Zr  Zr103  1  0.39342767  0.39342767  0.07640836  1.0
  Zr  Zr104  1  0.39342767  0.72676100  0.07640836  1.0
  Zr  Zr105  1  0.72676100  0.06009433  0.07640836  1.0
  Zr  Zr106  1  0.72676100  0.39342767  0.07640836  1.0
  Zr  Zr107  1  0.72676100  0.72676100  0.07640836  1.0
  Ni  Ni108  1  0.31954233  0.31954233  0.12795521  1.0
  Ni  Ni109  1  0.31954233  0.65287567  0.12795521  1.0
  Ni  Ni110  1  0.31954233  0.98620900  0.12795521  1.0
  Ni  Ni111  1  0.65287567  0.31954233  0.12795521  1.0
  Ni  Ni112  1  0.65287567  0.65287567  0.12795521  1.0
  Ni  Ni113  1  0.65287567  0.98620900  0.12795521  1.0
  Ni  Ni114  1  0.98620900  0.31954233  0.12795521  1.0
  Ni  Ni115  1  0.98620900  0.65287567  0.12795521  1.0
  Ni  Ni116  1  0.98620900  0.98620900  0.12795521  1.0
  Ni  Ni117  1  0.15287567  0.15287567  0.09224093  1.0
  Ni  Ni118  1  0.15287567  0.48620900  0.09224093  1.0
  Ni  Ni119  1  0.15287567  0.81954233  0.09224093  1.0
  Ni  Ni120  1  0.48620900  0.15287567  0.09224093  1.0
  Ni  Ni121  1  0.48620900  0.48620900  0.09224093  1.0
  Ni  Ni122  1  0.48620900  0.81954233  0.09224093  1.0
  Ni  Ni123  1  0.81954233  0.15287567  0.09224093  1.0
  Ni  Ni124  1  0.81954233  0.48620900  0.09224093  1.0
  Ni  Ni125  1  0.81954233  0.81954233  0.09224093  1.0
  Ni  Ni126  1  0.18045767  0.18045767  0.12204479  1.0
  Ni  Ni127  1  0.18045767  0.51379100  0.12204479  1.0
  Ni  Ni128  1  0.18045767  0.84712433  0.12204479  1.0
  Ni  Ni129  1  0.51379100  0.18045767  0.12204479  1.0
  Ni  Ni130  1  0.51379100  0.51379100  0.12204479  1.0
  Ni  Ni131  1  0.51379100  0.84712433  0.12204479  1.0
  Ni  Ni132  1  0.84712433  0.18045767  0.12204479  1.0
  Ni  Ni133  1  0.84712433  0.51379100  0.12204479  1.0
  Ni  Ni134  1  0.84712433  0.84712433  0.12204479  1.0
  Ni  Ni135  1  0.01379100  0.01379100  0.08633050  1.0
  Ni  Ni136  1  0.01379100  0.34712433  0.08633050  1.0
  Ni  Ni137  1  0.01379100  0.68045767  0.08633050  1.0
  Ni  Ni138  1  0.34712433  0.01379100  0.08633050  1.0
  Ni  Ni139  1  0.34712433  0.34712433  0.08633050  1.0
  Ni  Ni140  1  0.34712433  0.68045767  0.08633050  1.0
  Ni  Ni141  1  0.68045767  0.01379100  0.08633050  1.0
  Ni  Ni142  1  0.68045767  0.34712433  0.08633050  1.0
  Ni  Ni143  1  0.68045767  0.68045767  0.08633050  1.0
  Zr  Zr144  1  0.27323900  0.27323900  0.20930593  1.0
  Zr  Zr145  1  0.27323900  0.60657233  0.20930593  1.0
  Zr  Zr146  1  0.27323900  0.93990567  0.20930593  1.0
  Zr  Zr147  1  0.60657233  0.27323900  0.20930593  1.0
  Zr  Zr148  1  0.60657233  0.60657233  0.20930593  1.0
  Zr  Zr149  1  0.60657233  0.93990567  0.20930593  1.0
  Zr  Zr150  1  0.93990567  0.27323900  0.20930593  1.0
  Zr  Zr151  1  0.93990567  0.60657233  0.20930593  1.0
  Zr  Zr152  1  0.93990567  0.93990567  0.20930593  1.0
  Zr  Zr153  1  0.10657233  0.10657233  0.17359164  1.0
  Zr  Zr154  1  0.10657233  0.43990567  0.17359164  1.0
  Zr  Zr155  1  0.10657233  0.77323900  0.17359164  1.0
  Zr  Zr156  1  0.43990567  0.10657233  0.17359164  1.0
  Zr  Zr157  1  0.43990567  0.43990567  0.17359164  1.0
  Zr  Zr158  1  0.43990567  0.77323900  0.17359164  1.0
  Zr  Zr159  1  0.77323900  0.10657233  0.17359164  1.0
  Zr  Zr160  1  0.77323900  0.43990567  0.17359164  1.0
  Zr  Zr161  1  0.77323900  0.77323900  0.17359164  1.0
  Zr  Zr162  1  0.22676100  0.22676100  0.18355121  1.0
  Zr  Zr163  1  0.22676100  0.56009433  0.18355121  1.0
  Zr  Zr164  1  0.22676100  0.89342767  0.18355121  1.0
  Zr  Zr165  1  0.56009433  0.22676100  0.18355121  1.0
  Zr  Zr166  1  0.56009433  0.56009433  0.18355121  1.0
  Zr  Zr167  1  0.56009433  0.89342767  0.18355121  1.0
  Zr  Zr168  1  0.89342767  0.22676100  0.18355121  1.0
  Zr  Zr169  1  0.89342767  0.56009433  0.18355121  1.0
  Zr  Zr170  1  0.89342767  0.89342767  0.18355121  1.0
  Zr  Zr171  1  0.06009433  0.06009433  0.14783693  1.0
  Zr  Zr172  1  0.06009433  0.39342767  0.14783693  1.0
  Zr  Zr173  1  0.06009433  0.72676100  0.14783693  1.0
  Zr  Zr174  1  0.39342767  0.06009433  0.14783693  1.0
  Zr  Zr175  1  0.39342767  0.39342767  0.14783693  1.0
  Zr  Zr176  1  0.39342767  0.72676100  0.14783693  1.0
  Zr  Zr177  1  0.72676100  0.06009433  0.14783693  1.0
  Zr  Zr178  1  0.72676100  0.39342767  0.14783693  1.0
  Zr  Zr179  1  0.72676100  0.72676100  0.14783693  1.0
  Ni  Ni180  1  0.31954233  0.31954233  0.19938379  1.0
  Ni  Ni181  1  0.31954233  0.65287567  0.19938379  1.0
  Ni  Ni182  1  0.31954233  0.98620900  0.19938379  1.0
  Ni  Ni183  1  0.65287567  0.31954233  0.19938379  1.0
  Ni  Ni184  1  0.65287567  0.65287567  0.19938379  1.0
  Ni  Ni185  1  0.65287567  0.98620900  0.19938379  1.0
  Ni  Ni186  1  0.98620900  0.31954233  0.19938379  1.0
  Ni  Ni187  1  0.98620900  0.65287567  0.19938379  1.0
  Ni  Ni188  1  0.98620900  0.98620900  0.19938379  1.0
  Ni  Ni189  1  0.15287567  0.15287567  0.16366950  1.0
  Ni  Ni190  1  0.15287567  0.48620900  0.16366950  1.0
  Ni  Ni191  1  0.15287567  0.81954233  0.16366950  1.0
  Ni  Ni192  1  0.48620900  0.15287567  0.16366950  1.0
  Ni  Ni193  1  0.48620900  0.48620900  0.16366950  1.0
  Ni  Ni194  1  0.48620900  0.81954233  0.16366950  1.0
  Ni  Ni195  1  0.81954233  0.15287567  0.16366950  1.0
  Ni  Ni196  1  0.81954233  0.48620900  0.16366950  1.0
  Ni  Ni197  1  0.81954233  0.81954233  0.16366950  1.0
  Ni  Ni198  1  0.18045767  0.18045767  0.19347336  1.0
  Ni  Ni199  1  0.18045767  0.51379100  0.19347336  1.0
  Ni  Ni200  1  0.18045767  0.84712433  0.19347336  1.0
  Ni  Ni201  1  0.51379100  0.18045767  0.19347336  1.0
  Ni  Ni202  1  0.51379100  0.51379100  0.19347336  1.0
  Ni  Ni203  1  0.51379100  0.84712433  0.19347336  1.0
  Ni  Ni204  1  0.84712433  0.18045767  0.19347336  1.0
  Ni  Ni205  1  0.84712433  0.51379100  0.19347336  1.0
  Ni  Ni206  1  0.84712433  0.84712433  0.19347336  1.0
  Ni  Ni207  1  0.01379100  0.01379100  0.15775907  1.0
  Ni  Ni208  1  0.01379100  0.34712433  0.15775907  1.0
  Ni  Ni209  1  0.01379100  0.68045767  0.15775907  1.0
  Ni  Ni210  1  0.34712433  0.01379100  0.15775907  1.0
  Ni  Ni211  1  0.34712433  0.34712433  0.15775907  1.0
  Ni  Ni212  1  0.34712433  0.68045767  0.15775907  1.0
  Ni  Ni213  1  0.68045767  0.01379100  0.15775907  1.0
  Ni  Ni214  1  0.68045767  0.34712433  0.15775907  1.0
  Ni  Ni215  1  0.68045767  0.68045767  0.15775907  1.0
  Zr  Zr216  1  0.27323900  0.27323900  0.28073450  1.0
  Zr  Zr217  1  0.27323900  0.60657233  0.28073450  1.0
  Zr  Zr218  1  0.27323900  0.93990567  0.28073450  1.0
  Zr  Zr219  1  0.60657233  0.27323900  0.28073450  1.0
  Zr  Zr220  1  0.60657233  0.60657233  0.28073450  1.0
  Zr  Zr221  1  0.60657233  0.93990567  0.28073450  1.0
  Zr  Zr222  1  0.93990567  0.27323900  0.28073450  1.0
  Zr  Zr223  1  0.93990567  0.60657233  0.28073450  1.0
  Zr  Zr224  1  0.93990567  0.93990567  0.28073450  1.0
  Zr  Zr225  1  0.10657233  0.10657233  0.24502021  1.0
  Zr  Zr226  1  0.10657233  0.43990567  0.24502021  1.0
  Zr  Zr227  1  0.10657233  0.77323900  0.24502021  1.0
  Zr  Zr228  1  0.43990567  0.10657233  0.24502021  1.0
  Zr  Zr229  1  0.43990567  0.43990567  0.24502021  1.0
  Zr  Zr230  1  0.43990567  0.77323900  0.24502021  1.0
  Zr  Zr231  1  0.77323900  0.10657233  0.24502021  1.0
  Zr  Zr232  1  0.77323900  0.43990567  0.24502021  1.0
  Zr  Zr233  1  0.77323900  0.77323900  0.24502021  1.0
  Zr  Zr234  1  0.22676100  0.22676100  0.25497979  1.0
  Zr  Zr235  1  0.22676100  0.56009433  0.25497979  1.0
  Zr  Zr236  1  0.22676100  0.89342767  0.25497979  1.0
  Zr  Zr237  1  0.56009433  0.22676100  0.25497979  1.0
  Zr  Zr238  1  0.56009433  0.56009433  0.25497979  1.0
  Zr  Zr239  1  0.56009433  0.89342767  0.25497979  1.0
  Zr  Zr240  1  0.89342767  0.22676100  0.25497979  1.0
  Zr  Zr241  1  0.89342767  0.56009433  0.25497979  1.0
  Zr  Zr242  1  0.89342767  0.89342767  0.25497979  1.0
  Zr  Zr243  1  0.06009433  0.06009433  0.21926550  1.0
  Zr  Zr244  1  0.06009433  0.39342767  0.21926550  1.0
  Zr  Zr245  1  0.06009433  0.72676100  0.21926550  1.0
  Zr  Zr246  1  0.39342767  0.06009433  0.21926550  1.0
  Zr  Zr247  1  0.39342767  0.39342767  0.21926550  1.0
  Zr  Zr248  1  0.39342767  0.72676100  0.21926550  1.0
  Zr  Zr249  1  0.72676100  0.06009433  0.21926550  1.0
  Zr  Zr250  1  0.72676100  0.39342767  0.21926550  1.0
  Zr  Zr251  1  0.72676100  0.72676100  0.21926550  1.0
  Ni  Ni252  1  0.31954233  0.31954233  0.27081236  1.0
  Ni  Ni253  1  0.31954233  0.65287567  0.27081236  1.0
  Ni  Ni254  1  0.31954233  0.98620900  0.27081236  1.0
  Ni  Ni255  1  0.65287567  0.31954233  0.27081236  1.0
  Ni  Ni256  1  0.65287567  0.65287567  0.27081236  1.0
  Ni  Ni257  1  0.65287567  0.98620900  0.27081236  1.0
  Ni  Ni258  1  0.98620900  0.31954233  0.27081236  1.0
  Ni  Ni259  1  0.98620900  0.65287567  0.27081236  1.0
  Ni  Ni260  1  0.98620900  0.98620900  0.27081236  1.0
  Ni  Ni261  1  0.15287567  0.15287567  0.23509807  1.0
  Ni  Ni262  1  0.15287567  0.48620900  0.23509807  1.0
  Ni  Ni263  1  0.15287567  0.81954233  0.23509807  1.0
  Ni  Ni264  1  0.48620900  0.15287567  0.23509807  1.0
  Ni  Ni265  1  0.48620900  0.48620900  0.23509807  1.0
  Ni  Ni266  1  0.48620900  0.81954233  0.23509807  1.0
  Ni  Ni267  1  0.81954233  0.15287567  0.23509807  1.0
  Ni  Ni268  1  0.81954233  0.48620900  0.23509807  1.0
  Ni  Ni269  1  0.81954233  0.81954233  0.23509807  1.0
  Ni  Ni270  1  0.18045767  0.18045767  0.26490193  1.0
  Ni  Ni271  1  0.18045767  0.51379100  0.26490193  1.0
  Ni  Ni272  1  0.18045767  0.84712433  0.26490193  1.0
  Ni  Ni273  1  0.51379100  0.18045767  0.26490193  1.0
  Ni  Ni274  1  0.51379100  0.51379100  0.26490193  1.0
  Ni  Ni275  1  0.51379100  0.84712433  0.26490193  1.0
  Ni  Ni276  1  0.84712433  0.18045767  0.26490193  1.0
  Ni  Ni277  1  0.84712433  0.51379100  0.26490193  1.0
  Ni  Ni278  1  0.84712433  0.84712433  0.26490193  1.0
  Ni  Ni279  1  0.01379100  0.01379100  0.22918764  1.0
  Ni  Ni280  1  0.01379100  0.34712433  0.22918764  1.0
  Ni  Ni281  1  0.01379100  0.68045767  0.22918764  1.0
  Ni  Ni282  1  0.34712433  0.01379100  0.22918764  1.0
  Ni  Ni283  1  0.34712433  0.34712433  0.22918764  1.0
  Ni  Ni284  1  0.34712433  0.68045767  0.22918764  1.0
  Ni  Ni285  1  0.68045767  0.01379100  0.22918764  1.0
  Ni  Ni286  1  0.68045767  0.34712433  0.22918764  1.0
  Ni  Ni287  1  0.68045767  0.68045767  0.22918764  1.0
  Zr  Zr288  1  0.27323900  0.27323900  0.35216307  1.0
  Zr  Zr289  1  0.27323900  0.60657233  0.35216307  1.0
  Zr  Zr290  1  0.27323900  0.93990567  0.35216307  1.0
  Zr  Zr291  1  0.60657233  0.27323900  0.35216307  1.0
  Zr  Zr292  1  0.60657233  0.60657233  0.35216307  1.0
  Zr  Zr293  1  0.60657233  0.93990567  0.35216307  1.0
  Zr  Zr294  1  0.93990567  0.27323900  0.35216307  1.0
  Zr  Zr295  1  0.93990567  0.60657233  0.35216307  1.0
  Zr  Zr296  1  0.93990567  0.93990567  0.35216307  1.0
  Zr  Zr297  1  0.10657233  0.10657233  0.31644879  1.0
  Zr  Zr298  1  0.10657233  0.43990567  0.31644879  1.0
  Zr  Zr299  1  0.10657233  0.77323900  0.31644879  1.0
  Zr  Zr300  1  0.43990567  0.10657233  0.31644879  1.0
  Zr  Zr301  1  0.43990567  0.43990567  0.31644879  1.0
  Zr  Zr302  1  0.43990567  0.77323900  0.31644879  1.0
  Zr  Zr303  1  0.77323900  0.10657233  0.31644879  1.0
  Zr  Zr304  1  0.77323900  0.43990567  0.31644879  1.0
  Zr  Zr305  1  0.77323900  0.77323900  0.31644879  1.0
  Zr  Zr306  1  0.22676100  0.22676100  0.32640836  1.0
  Zr  Zr307  1  0.22676100  0.56009433  0.32640836  1.0
  Zr  Zr308  1  0.22676100  0.89342767  0.32640836  1.0
  Zr  Zr309  1  0.56009433  0.22676100  0.32640836  1.0
  Zr  Zr310  1  0.56009433  0.56009433  0.32640836  1.0
  Zr  Zr311  1  0.56009433  0.89342767  0.32640836  1.0
  Zr  Zr312  1  0.89342767  0.22676100  0.32640836  1.0
  Zr  Zr313  1  0.89342767  0.56009433  0.32640836  1.0
  Zr  Zr314  1  0.89342767  0.89342767  0.32640836  1.0
  Zr  Zr315  1  0.06009433  0.06009433  0.29069407  1.0
  Zr  Zr316  1  0.06009433  0.39342767  0.29069407  1.0
  Zr  Zr317  1  0.06009433  0.72676100  0.29069407  1.0
  Zr  Zr318  1  0.39342767  0.06009433  0.29069407  1.0
  Zr  Zr319  1  0.39342767  0.39342767  0.29069407  1.0
  Zr  Zr320  1  0.39342767  0.72676100  0.29069407  1.0
  Zr  Zr321  1  0.72676100  0.06009433  0.29069407  1.0
  Zr  Zr322  1  0.72676100  0.39342767  0.29069407  1.0
  Zr  Zr323  1  0.72676100  0.72676100  0.29069407  1.0
  Ni  Ni324  1  0.31954233  0.31954233  0.34224093  1.0
  Ni  Ni325  1  0.31954233  0.65287567  0.34224093  1.0
  Ni  Ni326  1  0.31954233  0.98620900  0.34224093  1.0
  Ni  Ni327  1  0.65287567  0.31954233  0.34224093  1.0
  Ni  Ni328  1  0.65287567  0.65287567  0.34224093  1.0
  Ni  Ni329  1  0.65287567  0.98620900  0.34224093  1.0
  Ni  Ni330  1  0.98620900  0.31954233  0.34224093  1.0
  Ni  Ni331  1  0.98620900  0.65287567  0.34224093  1.0
  Ni  Ni332  1  0.98620900  0.98620900  0.34224093  1.0
  Ni  Ni333  1  0.15287567  0.15287567  0.30652664  1.0
  Ni  Ni334  1  0.15287567  0.48620900  0.30652664  1.0
  Ni  Ni335  1  0.15287567  0.81954233  0.30652664  1.0
  Ni  Ni336  1  0.48620900  0.15287567  0.30652664  1.0
  Ni  Ni337  1  0.48620900  0.48620900  0.30652664  1.0
  Ni  Ni338  1  0.48620900  0.81954233  0.30652664  1.0
  Ni  Ni339  1  0.81954233  0.15287567  0.30652664  1.0
  Ni  Ni340  1  0.81954233  0.48620900  0.30652664  1.0
  Ni  Ni341  1  0.81954233  0.81954233  0.30652664  1.0
  Ni  Ni342  1  0.18045767  0.18045767  0.33633050  1.0
  Ni  Ni343  1  0.18045767  0.51379100  0.33633050  1.0
  Ni  Ni344  1  0.18045767  0.84712433  0.33633050  1.0
  Ni  Ni345  1  0.51379100  0.18045767  0.33633050  1.0
  Ni  Ni346  1  0.51379100  0.51379100  0.33633050  1.0
  Ni  Ni347  1  0.51379100  0.84712433  0.33633050  1.0
  Ni  Ni348  1  0.84712433  0.18045767  0.33633050  1.0
  Ni  Ni349  1  0.84712433  0.51379100  0.33633050  1.0
  Ni  Ni350  1  0.84712433  0.84712433  0.33633050  1.0
  Ni  Ni351  1  0.01379100  0.01379100  0.30061621  1.0
  Ni  Ni352  1  0.01379100  0.34712433  0.30061621  1.0
  Ni  Ni353  1  0.01379100  0.68045767  0.30061621  1.0
  Ni  Ni354  1  0.34712433  0.01379100  0.30061621  1.0
  Ni  Ni355  1  0.34712433  0.34712433  0.30061621  1.0
  Ni  Ni356  1  0.34712433  0.68045767  0.30061621  1.0
  Ni  Ni357  1  0.68045767  0.01379100  0.30061621  1.0
  Ni  Ni358  1  0.68045767  0.34712433  0.30061621  1.0
  Ni  Ni359  1  0.68045767  0.68045767  0.30061621  1.0
  Zr  Zr360  1  0.27323900  0.27323900  0.42359164  1.0
  Zr  Zr361  1  0.27323900  0.60657233  0.42359164  1.0
  Zr  Zr362  1  0.27323900  0.93990567  0.42359164  1.0
  Zr  Zr363  1  0.60657233  0.27323900  0.42359164  1.0
  Zr  Zr364  1  0.60657233  0.60657233  0.42359164  1.0
  Zr  Zr365  1  0.60657233  0.93990567  0.42359164  1.0
  Zr  Zr366  1  0.93990567  0.27323900  0.42359164  1.0
  Zr  Zr367  1  0.93990567  0.60657233  0.42359164  1.0
  Zr  Zr368  1  0.93990567  0.93990567  0.42359164  1.0
  Zr  Zr369  1  0.10657233  0.10657233  0.38787736  1.0
  Zr  Zr370  1  0.10657233  0.43990567  0.38787736  1.0
  Zr  Zr371  1  0.10657233  0.77323900  0.38787736  1.0
  Zr  Zr372  1  0.43990567  0.10657233  0.38787736  1.0
  Zr  Zr373  1  0.43990567  0.43990567  0.38787736  1.0
  Zr  Zr374  1  0.43990567  0.77323900  0.38787736  1.0
  Zr  Zr375  1  0.77323900  0.10657233  0.38787736  1.0
  Zr  Zr376  1  0.77323900  0.43990567  0.38787736  1.0
  Zr  Zr377  1  0.77323900  0.77323900  0.38787736  1.0
  Zr  Zr378  1  0.22676100  0.22676100  0.39783693  1.0
  Zr  Zr379  1  0.22676100  0.56009433  0.39783693  1.0
  Zr  Zr380  1  0.22676100  0.89342767  0.39783693  1.0
  Zr  Zr381  1  0.56009433  0.22676100  0.39783693  1.0
  Zr  Zr382  1  0.56009433  0.56009433  0.39783693  1.0
  Zr  Zr383  1  0.56009433  0.89342767  0.39783693  1.0
  Zr  Zr384  1  0.89342767  0.22676100  0.39783693  1.0
  Zr  Zr385  1  0.89342767  0.56009433  0.39783693  1.0
  Zr  Zr386  1  0.89342767  0.89342767  0.39783693  1.0
  Zr  Zr387  1  0.06009433  0.06009433  0.36212264  1.0
  Zr  Zr388  1  0.06009433  0.39342767  0.36212264  1.0
  Zr  Zr389  1  0.06009433  0.72676100  0.36212264  1.0
  Zr  Zr390  1  0.39342767  0.06009433  0.36212264  1.0
  Zr  Zr391  1  0.39342767  0.39342767  0.36212264  1.0
  Zr  Zr392  1  0.39342767  0.72676100  0.36212264  1.0
  Zr  Zr393  1  0.72676100  0.06009433  0.36212264  1.0
  Zr  Zr394  1  0.72676100  0.39342767  0.36212264  1.0
  Zr  Zr395  1  0.72676100  0.72676100  0.36212264  1.0
  Ni  Ni396  1  0.31954233  0.31954233  0.41366950  1.0
  Ni  Ni397  1  0.31954233  0.65287567  0.41366950  1.0
  Ni  Ni398  1  0.31954233  0.98620900  0.41366950  1.0
  Ni  Ni399  1  0.65287567  0.31954233  0.41366950  1.0
  Ni  Ni400  1  0.65287567  0.65287567  0.41366950  1.0
  Ni  Ni401  1  0.65287567  0.98620900  0.41366950  1.0
  Ni  Ni402  1  0.98620900  0.31954233  0.41366950  1.0
  Ni  Ni403  1  0.98620900  0.65287567  0.41366950  1.0
  Ni  Ni404  1  0.98620900  0.98620900  0.41366950  1.0
  Ni  Ni405  1  0.15287567  0.15287567  0.37795521  1.0
  Ni  Ni406  1  0.15287567  0.48620900  0.37795521  1.0
  Ni  Ni407  1  0.15287567  0.81954233  0.37795521  1.0
  Ni  Ni408  1  0.48620900  0.15287567  0.37795521  1.0
  Ni  Ni409  1  0.48620900  0.48620900  0.37795521  1.0
  Ni  Ni410  1  0.48620900  0.81954233  0.37795521  1.0
  Ni  Ni411  1  0.81954233  0.15287567  0.37795521  1.0
  Ni  Ni412  1  0.81954233  0.48620900  0.37795521  1.0
  Ni  Ni413  1  0.81954233  0.81954233  0.37795521  1.0
  Ni  Ni414  1  0.18045767  0.18045767  0.40775907  1.0
  Ni  Ni415  1  0.18045767  0.51379100  0.40775907  1.0
  Ni  Ni416  1  0.18045767  0.84712433  0.40775907  1.0
  Ni  Ni417  1  0.51379100  0.18045767  0.40775907  1.0
  Ni  Ni418  1  0.51379100  0.51379100  0.40775907  1.0
  Ni  Ni419  1  0.51379100  0.84712433  0.40775907  1.0
  Ni  Ni420  1  0.84712433  0.18045767  0.40775907  1.0
  Ni  Ni421  1  0.84712433  0.51379100  0.40775907  1.0
  Ni  Ni422  1  0.84712433  0.84712433  0.40775907  1.0
  Ni  Ni423  1  0.01379100  0.01379100  0.37204479  1.0
  Ni  Ni424  1  0.01379100  0.34712433  0.37204479  1.0
  Ni  Ni425  1  0.01379100  0.68045767  0.37204479  1.0
  Ni  Ni426  1  0.34712433  0.01379100  0.37204479  1.0
  Ni  Ni427  1  0.34712433  0.34712433  0.37204479  1.0
  Ni  Ni428  1  0.34712433  0.68045767  0.37204479  1.0
  Ni  Ni429  1  0.68045767  0.01379100  0.37204479  1.0
  Ni  Ni430  1  0.68045767  0.34712433  0.37204479  1.0
  Ni  Ni431  1  0.68045767  0.68045767  0.37204479  1.0
