# generated using pymatgen
data_ZrNi
_symmetry_space_group_name_H-M   'P 1'
_cell_length_a   15.75336417
_cell_length_b   12.25667700
_cell_length_c   47.26009251
_cell_angle_alpha   90.00000000
_cell_angle_beta   143.30730163
_cell_angle_gamma   90.00000000
_symmetry_Int_Tables_number   1
_chemical_formula_structural   ZrNi
_chemical_formula_sum   'Zr72 Ni72'
_cell_volume   5452.49434079
_cell_formula_units_Z   72
loop_
 _symmetry_equiv_pos_site_id
 _symmetry_equiv_pos_as_xyz
  1  'x, y, z'
loop_
 _atom_site_type_symbol
 _atom_site_label
 _atom_site_symmetry_multiplicity
 _atom_site_fract_x
 _atom_site_fract_y
 _atom_site_fract_z
 _atom_site_occupancy
  Zr  Zr0  1  0.21314467  0.25000000  0.04006289  1.0
  Zr  Zr1  1  0.21314467  0.58333333  0.04006289  1.0
  Zr  Zr2  1  0.21314467  0.91666667  0.04006289  1.0
  Zr  Zr3  1  0.54647800  0.25000000  0.04006289  1.0
  Zr  Zr4  1  0.54647800  0.58333333  0.04006289  1.0
  Zr  Zr5  1  0.54647800  0.91666667  0.04006289  1.0
  Zr  Zr6  1  0.87981133  0.25000000  0.04006289  1.0
  Zr  Zr7  1  0.87981133  0.58333333  0.04006289  1.0
  Zr  Zr8  1  0.87981133  0.91666667  0.04006289  1.0
  Zr  Zr9  1  0.12018867  0.08333333  0.07104822  1.0
  Zr  Zr10  1  0.12018867  0.41666667  0.07104822  1.0
  Zr  Zr11  1  0.12018867  0.75000000  0.07104822  1.0
  Zr  Zr12  1  0.45352200  0.08333333  0.07104822  1.0
  Zr  Zr13  1  0.45352200  0.41666667  0.07104822  1.0
  Zr  Zr14  1  0.45352200  0.75000000  0.07104822  1.0
  Zr  Zr15  1  0.78685533  0.08333333  0.07104822  1.0
  Zr  Zr16  1  0.78685533  0.41666667  0.07104822  1.0
  Zr  Zr17  1  0.78685533  0.75000000  0.07104822  1.0
  Ni  Ni18  1  0.30575133  0.25000000  0.00919400  1.0
  Ni  Ni19  1  0.30575133  0.58333333  0.00919400  1.0
  Ni  Ni20  1  0.30575133  0.91666667  0.00919400  1.0
  Ni  Ni21  1  0.63908467  0.25000000  0.00919400  1.0
  Ni  Ni22  1  0.63908467  0.58333333  0.00919400  1.0
  Ni  Ni23  1  0.63908467  0.91666667  0.00919400  1.0
  Ni  Ni24  1  0.97241800  0.25000000  0.00919400  1.0
  Ni  Ni25  1  0.97241800  0.58333333  0.00919400  1.0
  Ni  Ni26  1  0.97241800  0.91666667  0.00919400  1.0
  Ni  Ni27  1  0.02758200  0.08333333  0.10191711  1.0
  Ni  Ni28  1  0.02758200  0.41666667  0.10191711  1.0
  Ni  Ni29  1  0.02758200  0.75000000  0.10191711  1.0
  Ni  Ni30  1  0.36091533  0.08333333  0.10191711  1.0
  Ni  Ni31  1  0.36091533  0.41666667  0.10191711  1.0
  Ni  Ni32  1  0.36091533  0.75000000  0.10191711  1.0
  Ni  Ni33  1  0.69424867  0.08333333  0.10191711  1.0
  Ni  Ni34  1  0.69424867  0.41666667  0.10191711  1.0
  Ni  Ni35  1  0.69424867  0.75000000  0.10191711  1.0
  Zr  Zr36  1  0.21314467  0.25000000  0.15117400  1.0
  Zr  Zr37  1  0.21314467  0.58333333  0.15117400  1.0
  Zr  Zr38  1  0.21314467  0.91666667  0.15117400  1.0
  Zr  Zr39  1  0.54647800  0.25000000  0.15117400  1.0
  Zr  Zr40  1  0.54647800  0.58333333  0.15117400  1.0
  Zr  Zr41  1  0.54647800  0.91666667  0.15117400  1.0
  Zr  Zr42  1  0.87981133  0.25000000  0.15117400  1.0
  Zr  Zr43  1  0.87981133  0.58333333  0.15117400  1.0
  Zr  Zr44  1  0.87981133  0.91666667  0.15117400  1.0
  Zr  Zr45  1  0.12018867  0.08333333  0.18215933  1.0
  Zr  Zr46  1  0.12018867  0.41666667  0.18215933  1.0
  Zr  Zr47  1  0.12018867  0.75000000  0.18215933  1.0
  Zr  Zr48  1  0.45352200  0.08333333  0.18215933  1.0
  Zr  Zr49  1  0.45352200  0.41666667  0.18215933  1.0
  Zr  Zr50  1  0.45352200  0.75000000  0.18215933  1.0
  Zr  Zr51  1  0.78685533  0.08333333  0.18215933  1.0
  Zr  Zr52  1  0.78685533  0.41666667  0.18215933  1.0
  Zr  Zr53  1  0.78685533  0.75000000  0.18215933  1.0
  Ni  Ni54  1  0.30575133  0.25000000  0.12030511  1.0
  Ni  Ni55  1  0.30575133  0.58333333  0.12030511  1.0
  Ni  Ni56  1  0.30575133  0.91666667  0.12030511  1.0
  Ni  Ni57  1  0.63908467  0.25000000  0.12030511  1.0
  Ni  Ni58  1  0.63908467  0.58333333  0.12030511  1.0
  Ni  Ni59  1  0.63908467  0.91666667  0.12030511  1.0
  Ni  Ni60  1  0.97241800  0.25000000  0.12030511  1.0
  Ni  Ni61  1  0.97241800  0.58333333  0.12030511  1.0
  Ni  Ni62  1  0.97241800  0.91666667  0.12030511  1.0
  Ni  Ni63  1  0.02758200  0.08333333  0.21302822  1.0
  Ni  Ni64  1  0.02758200  0.41666667  0.21302822  1.0
  Ni  Ni65  1  0.02758200  0.75000000  0.21302822  1.0
  Ni  Ni66  1  0.36091533  0.08333333  0.21302822  1.0
  Ni  Ni67  1  0.36091533  0.41666667  0.21302822  1.0
  Ni  Ni68  1  0.36091533  0.75000000  0.21302822  1.0
  Ni  Ni69  1  0.69424867  0.08333333  0.21302822  1.0
  Ni  Ni70  1  0.69424867  0.41666667  0.21302822  1.0
  Ni  Ni71  1  0.69424867  0.75000000  0.21302822  1.0
  Zr  Zr72  1  0.21314467  0.25000000  0.26228511  1.0
  Zr  Zr73  1  0.21314467  0.58333333  0.26228511  1.0
  Zr  Zr74  1  0.21314467  0.91666667  0.26228511  1.0
  Zr  Zr75  1  0.54647800  0.25000000  0.26228511  1.0
  Zr  Zr76  1  0.54647800  0.58333333  0.26228511  1.0
  Zr  Zr77  1  0.54647800  0.91666667  0.26228511  1.0
  Zr  Zr78  1  0.87981133  0.25000000  0.26228511  1.0
  Zr  Zr79  1  0.87981133  0.58333333  0.26228511  1.0
  Zr  Zr80  1  0.87981133  0.91666667  0.26228511  1.0
  Zr  Zr81  1  0.12018867  0.08333333  0.29327044  1.0
  Zr  Zr82  1  0.12018867  0.41666667  0.29327044  1.0
  Zr  Zr83  1  0.12018867  0.75000000  0.29327044  1.0
  Zr  Zr84  1  0.45352200  0.08333333  0.29327044  1.0
  Zr  Zr85  1  0.45352200  0.41666667  0.29327044  1.0
  Zr  Zr86  1  0.45352200  0.75000000  0.29327044  1.0
  Zr  Zr87  1  0.78685533  0.08333333  0.29327044  1.0
  Zr  Zr88  1  0.78685533  0.41666667  0.29327044  1.0
  Zr  Zr89  1  0.78685533  0.75000000  0.29327044  1.0
  Ni  Ni90  1  0.30575133  0.25000000  0.23141622  1.0
  Ni  Ni91  1  0.30575133  0.58333333  0.23141622  1.0
  Ni  Ni92  1  0.30575133  0.91666667  0.23141622  1.0
  Ni  Ni93  1  0.63908467  0.25000000  0.23141622  1.0
  Ni  Ni94  1  0.63908467  0.58333333  0.23141622  1.0
  Ni  Ni95  1  0.63908467  0.91666667  0.23141622  1.0
  Ni  Ni96  1  0.97241800  0.25000000  0.23141622  1.0
  Ni  Ni97  1  0.97241800  0.58333333  0.23141622  1.0
  Ni  Ni98  1  0.97241800  0.91666667  0.23141622  1.0
  Ni  Ni99  1  0.02758200  0.08333333  0.32413933  1.0
  Ni  Ni100  1  0.02758200  0.41666667  0.32413933  1.0
  Ni  Ni101  1  0.02758200  0.75000000  0.32413933  1.0
  Ni  Ni102  1  0.36091533  0.08333333  0.32413933  1.0
  Ni  Ni103  1  0.36091533  0.41666667  0.32413933  1.0
  Ni  Ni104  1  0.36091533  0.75000000  0.32413933  1.0
  Ni  Ni105  1  0.69424867  0.08333333  0.32413933  1.0
  Ni  Ni106  1  0.69424867  0.41666667  0.32413933  1.0
  Ni  Ni107  1  0.69424867  0.75000000  0.32413933  1.0
  Zr  Zr108  1  0.21314467  0.25000000  0.37339622  1.0
  Zr  Zr109  1  0.21314467  0.58333333  0.37339622  1.0
  Zr  Zr110  1  0.21314467  0.91666667  0.37339622  1.0
  Zr  Zr111  1  0.54647800  0.25000000  0.37339622  1.0
  Zr  Zr112  1  0.54647800  0.58333333  0.37339622  1.0
  Zr  Zr113  1  0.54647800  0.91666667  0.37339622  1.0
  Zr  Zr114  1  0.87981133  0.25000000  0.37339622  1.0
  Zr  Zr115  1  0.87981133  0.58333333  0.37339622  1.0
  Zr  Zr116  1  0.87981133  0.91666667  0.37339622  1.0
  Zr  Zr117  1  0.12018867  0.08333333  0.40438156  1.0
  Zr  Zr118  1  0.12018867  0.41666667  0.40438156  1.0
  Zr  Zr119  1  0.12018867  0.75000000  0.40438156  1.0
  Zr  Zr120  1  0.45352200  0.08333333  0.40438156  1.0
  Zr  Zr121  1  0.45352200  0.41666667  0.40438156  1.0
  Zr  Zr122  1  0.45352200  0.75000000  0.40438156  1.0
  Zr  Zr123  1  0.78685533  0.08333333  0.40438156  1.0
  Zr  Zr124  1  0.78685533  0.41666667  0.40438156  1.0
  Zr  Zr125  1  0.78685533  0.75000000  0.40438156  1.0
  Ni  Ni126  1  0.30575133  0.25000000  0.34252733  1.0
  Ni  Ni127  1  0.30575133  0.58333333  0.34252733  1.0
  Ni  Ni128  1  0.30575133  0.91666667  0.34252733  1.0
  Ni  Ni129  1  0.63908467  0.25000000  0.34252733  1.0
  Ni  Ni130  1  0.63908467  0.58333333  0.34252733  1.0
  Ni  Ni131  1  0.63908467  0.91666667  0.34252733  1.0
  Ni  Ni132  1  0.97241800  0.25000000  0.34252733  1.0
  Ni  Ni133  1  0.97241800  0.58333333  0.34252733  1.0
  Ni  Ni134  1  0.97241800  0.91666667  0.34252733  1.0
  Ni  Ni135  1  0.02758200  0.08333333  0.43525044  1.0
  Ni  Ni136  1  0.02758200  0.41666667  0.43525044  1.0
  Ni  Ni137  1  0.02758200  0.75000000  0.43525044  1.0
  Ni  Ni138  1  0.36091533  0.08333333  0.43525044  1.0
  Ni  Ni139  1  0.36091533  0.41666667  0.43525044  1.0
  Ni  Ni140  1  0.36091533  0.75000000  0.43525044  1.0
  Ni  Ni141  1  0.69424867  0.08333333  0.43525044  1.0
  Ni  Ni142  1  0.69424867  0.41666667  0.43525044  1.0
  Ni  Ni143  1  0.69424867  0.75000000  0.43525044  1.0
