# generated using pymatgen
data_ZrNi
_symmetry_space_group_name_H-M   'P 1'
_cell_length_a   12.25667700
_cell_length_b   45.13113990
_cell_length_c   63.01345668
_cell_angle_alpha   155.34585893
_cell_angle_beta   90.00000000
_cell_angle_gamma   90.00000000
_symmetry_Int_Tables_number   1
_chemical_formula_structural   ZrNi
_chemical_formula_sum   'Zr180 Ni180'
_cell_volume   14539.98490878
_cell_formula_units_Z   180
loop_
 _symmetry_equiv_pos_site_id
 _symmetry_equiv_pos_as_xyz
  1  'x, y, z'
loop_
 _atom_site_type_symbol
 _atom_site_label
 _atom_site_symmetry_multiplicity
 _atom_site_fract_x
 _atom_site_fract_y
 _atom_site_fract_z
 _atom_site_occupancy
  Zr  Zr0  1  0.08333333  0.06009433  0.05907408  1.0
  Zr  Zr1  1  0.08333333  0.39342767  0.05907408  1.0
  Zr  Zr2  1  0.08333333  0.72676100  0.05907408  1.0
  Zr  Zr3  1  0.41666667  0.06009433  0.05907408  1.0
  Zr  Zr4  1  0.41666667  0.39342767  0.05907408  1.0
  Zr  Zr5  1  0.41666667  0.72676100  0.05907408  1.0
  Zr  Zr6  1  0.75000000  0.06009433  0.05907408  1.0
  Zr  Zr7  1  0.75000000  0.39342767  0.05907408  1.0
  Zr  Zr8  1  0.75000000  0.72676100  0.05907408  1.0
  Zr  Zr9  1  0.08333333  0.22676100  0.01740742  1.0
  Zr  Zr10  1  0.08333333  0.56009433  0.01740742  1.0
  Zr  Zr11  1  0.08333333  0.89342767  0.01740742  1.0
  Zr  Zr12  1  0.41666667  0.22676100  0.01740742  1.0
  Zr  Zr13  1  0.41666667  0.56009433  0.01740742  1.0
  Zr  Zr14  1  0.41666667  0.89342767  0.01740742  1.0
  Zr  Zr15  1  0.75000000  0.22676100  0.01740742  1.0
  Zr  Zr16  1  0.75000000  0.56009433  0.01740742  1.0
  Zr  Zr17  1  0.75000000  0.89342767  0.01740742  1.0
  Zr  Zr18  1  0.25000000  0.10657233  0.04745458  1.0
  Zr  Zr19  1  0.25000000  0.43990567  0.04745458  1.0
  Zr  Zr20  1  0.25000000  0.77323900  0.04745458  1.0
  Zr  Zr21  1  0.58333333  0.10657233  0.04745458  1.0
  Zr  Zr22  1  0.58333333  0.43990567  0.04745458  1.0
  Zr  Zr23  1  0.58333333  0.77323900  0.04745458  1.0
  Zr  Zr24  1  0.91666667  0.10657233  0.04745458  1.0
  Zr  Zr25  1  0.91666667  0.43990567  0.04745458  1.0
  Zr  Zr26  1  0.91666667  0.77323900  0.04745458  1.0
  Zr  Zr27  1  0.25000000  0.27323900  0.00578792  1.0
  Zr  Zr28  1  0.25000000  0.60657233  0.00578792  1.0
  Zr  Zr29  1  0.25000000  0.93990567  0.00578792  1.0
  Zr  Zr30  1  0.58333333  0.27323900  0.00578792  1.0
  Zr  Zr31  1  0.58333333  0.60657233  0.00578792  1.0
  Zr  Zr32  1  0.58333333  0.93990567  0.00578792  1.0
  Zr  Zr33  1  0.91666667  0.27323900  0.00578792  1.0
  Zr  Zr34  1  0.91666667  0.60657233  0.00578792  1.0
  Zr  Zr35  1  0.91666667  0.93990567  0.00578792  1.0
  Ni  Ni36  1  0.08333333  0.01379100  0.07064992  1.0
  Ni  Ni37  1  0.08333333  0.34712433  0.07064992  1.0
  Ni  Ni38  1  0.08333333  0.68045767  0.07064992  1.0
  Ni  Ni39  1  0.41666667  0.01379100  0.07064992  1.0
  Ni  Ni40  1  0.41666667  0.34712433  0.07064992  1.0
  Ni  Ni41  1  0.41666667  0.68045767  0.07064992  1.0
  Ni  Ni42  1  0.75000000  0.01379100  0.07064992  1.0
  Ni  Ni43  1  0.75000000  0.34712433  0.07064992  1.0
  Ni  Ni44  1  0.75000000  0.68045767  0.07064992  1.0
  Ni  Ni45  1  0.08333333  0.18045767  0.02898325  1.0
  Ni  Ni46  1  0.08333333  0.51379100  0.02898325  1.0
  Ni  Ni47  1  0.08333333  0.84712433  0.02898325  1.0
  Ni  Ni48  1  0.41666667  0.18045767  0.02898325  1.0
  Ni  Ni49  1  0.41666667  0.51379100  0.02898325  1.0
  Ni  Ni50  1  0.41666667  0.84712433  0.02898325  1.0
  Ni  Ni51  1  0.75000000  0.18045767  0.02898325  1.0
  Ni  Ni52  1  0.75000000  0.51379100  0.02898325  1.0
  Ni  Ni53  1  0.75000000  0.84712433  0.02898325  1.0
  Ni  Ni54  1  0.25000000  0.15287567  0.03587875  1.0
  Ni  Ni55  1  0.25000000  0.48620900  0.03587875  1.0
  Ni  Ni56  1  0.25000000  0.81954233  0.03587875  1.0
  Ni  Ni57  1  0.58333333  0.15287567  0.03587875  1.0
  Ni  Ni58  1  0.58333333  0.48620900  0.03587875  1.0
  Ni  Ni59  1  0.58333333  0.81954233  0.03587875  1.0
  Ni  Ni60  1  0.91666667  0.15287567  0.03587875  1.0
  Ni  Ni61  1  0.91666667  0.48620900  0.03587875  1.0
  Ni  Ni62  1  0.91666667  0.81954233  0.03587875  1.0
  Ni  Ni63  1  0.25000000  0.31954233  0.07754542  1.0
  Ni  Ni64  1  0.25000000  0.65287567  0.07754542  1.0
  Ni  Ni65  1  0.25000000  0.98620900  0.07754542  1.0
  Ni  Ni66  1  0.58333333  0.31954233  0.07754542  1.0
  Ni  Ni67  1  0.58333333  0.65287567  0.07754542  1.0
  Ni  Ni68  1  0.58333333  0.98620900  0.07754542  1.0
  Ni  Ni69  1  0.91666667  0.31954233  0.07754542  1.0
  Ni  Ni70  1  0.91666667  0.65287567  0.07754542  1.0
  Ni  Ni71  1  0.91666667  0.98620900  0.07754542  1.0
  Zr  Zr72  1  0.08333333  0.06009433  0.14240742  1.0
  Zr  Zr73  1  0.08333333  0.39342767  0.14240742  1.0
  Zr  Zr74  1  0.08333333  0.72676100  0.14240742  1.0
  Zr  Zr75  1  0.41666667  0.06009433  0.14240742  1.0
  Zr  Zr76  1  0.41666667  0.39342767  0.14240742  1.0
  Zr  Zr77  1  0.41666667  0.72676100  0.14240742  1.0
  Zr  Zr78  1  0.75000000  0.06009433  0.14240742  1.0
  Zr  Zr79  1  0.75000000  0.39342767  0.14240742  1.0
  Zr  Zr80  1  0.75000000  0.72676100  0.14240742  1.0
  Zr  Zr81  1  0.08333333  0.22676100  0.10074075  1.0
  Zr  Zr82  1  0.08333333  0.56009433  0.10074075  1.0
  Zr  Zr83  1  0.08333333  0.89342767  0.10074075  1.0
  Zr  Zr84  1  0.41666667  0.22676100  0.10074075  1.0
  Zr  Zr85  1  0.41666667  0.56009433  0.10074075  1.0
  Zr  Zr86  1  0.41666667  0.89342767  0.10074075  1.0
  Zr  Zr87  1  0.75000000  0.22676100  0.10074075  1.0
  Zr  Zr88  1  0.75000000  0.56009433  0.10074075  1.0
  Zr  Zr89  1  0.75000000  0.89342767  0.10074075  1.0
  Zr  Zr90  1  0.25000000  0.10657233  0.13078792  1.0
  Zr  Zr91  1  0.25000000  0.43990567  0.13078792  1.0
  Zr  Zr92  1  0.25000000  0.77323900  0.13078792  1.0
  Zr  Zr93  1  0.58333333  0.10657233  0.13078792  1.0
  Zr  Zr94  1  0.58333333  0.43990567  0.13078792  1.0
  Zr  Zr95  1  0.58333333  0.77323900  0.13078792  1.0
  Zr  Zr96  1  0.91666667  0.10657233  0.13078792  1.0
  Zr  Zr97  1  0.91666667  0.43990567  0.13078792  1.0
  Zr  Zr98  1  0.91666667  0.77323900  0.13078792  1.0
  Zr  Zr99  1  0.25000000  0.27323900  0.08912125  1.0
  Zr  Zr100  1  0.25000000  0.60657233  0.08912125  1.0
  Zr  Zr101  1  0.25000000  0.93990567  0.08912125  1.0
  Zr  Zr102  1  0.58333333  0.27323900  0.08912125  1.0
  Zr  Zr103  1  0.58333333  0.60657233  0.08912125  1.0
  Zr  Zr104  1  0.58333333  0.93990567  0.08912125  1.0
  Zr  Zr105  1  0.91666667  0.27323900  0.08912125  1.0
  Zr  Zr106  1  0.91666667  0.60657233  0.08912125  1.0
  Zr  Zr107  1  0.91666667  0.93990567  0.08912125  1.0
  Ni  Ni108  1  0.08333333  0.01379100  0.15398325  1.0
  Ni  Ni109  1  0.08333333  0.34712433  0.15398325  1.0
  Ni  Ni110  1  0.08333333  0.68045767  0.15398325  1.0
  Ni  Ni111  1  0.41666667  0.01379100  0.15398325  1.0
  Ni  Ni112  1  0.41666667  0.34712433  0.15398325  1.0
  Ni  Ni113  1  0.41666667  0.68045767  0.15398325  1.0
  Ni  Ni114  1  0.75000000  0.01379100  0.15398325  1.0
  Ni  Ni115  1  0.75000000  0.34712433  0.15398325  1.0
  Ni  Ni116  1  0.75000000  0.68045767  0.15398325  1.0
  Ni  Ni117  1  0.08333333  0.18045767  0.11231658  1.0
  Ni  Ni118  1  0.08333333  0.51379100  0.11231658  1.0
  Ni  Ni119  1  0.08333333  0.84712433  0.11231658  1.0
  Ni  Ni120  1  0.41666667  0.18045767  0.11231658  1.0
  Ni  Ni121  1  0.41666667  0.51379100  0.11231658  1.0
  Ni  Ni122  1  0.41666667  0.84712433  0.11231658  1.0
  Ni  Ni123  1  0.75000000  0.18045767  0.11231658  1.0
  Ni  Ni124  1  0.75000000  0.51379100  0.11231658  1.0
  Ni  Ni125  1  0.75000000  0.84712433  0.11231658  1.0
  Ni  Ni126  1  0.25000000  0.15287567  0.11921208  1.0
  Ni  Ni127  1  0.25000000  0.48620900  0.11921208  1.0
  Ni  Ni128  1  0.25000000  0.81954233  0.11921208  1.0
  Ni  Ni129  1  0.58333333  0.15287567  0.11921208  1.0
  Ni  Ni130  1  0.58333333  0.48620900  0.11921208  1.0
  Ni  Ni131  1  0.58333333  0.81954233  0.11921208  1.0
  Ni  Ni132  1  0.91666667  0.15287567  0.11921208  1.0
  Ni  Ni133  1  0.91666667  0.48620900  0.11921208  1.0
  Ni  Ni134  1  0.91666667  0.81954233  0.11921208  1.0
  Ni  Ni135  1  0.25000000  0.31954233  0.16087875  1.0
  Ni  Ni136  1  0.25000000  0.65287567  0.16087875  1.0
  Ni  Ni137  1  0.25000000  0.98620900  0.16087875  1.0
  Ni  Ni138  1  0.58333333  0.31954233  0.16087875  1.0
  Ni  Ni139  1  0.58333333  0.65287567  0.16087875  1.0
  Ni  Ni140  1  0.58333333  0.98620900  0.16087875  1.0
  Ni  Ni141  1  0.91666667  0.31954233  0.16087875  1.0
  Ni  Ni142  1  0.91666667  0.65287567  0.16087875  1.0
  Ni  Ni143  1  0.91666667  0.98620900  0.16087875  1.0
  Zr  Zr144  1  0.08333333  0.06009433  0.22574075  1.0
  Zr  Zr145  1  0.08333333  0.39342767  0.22574075  1.0
  Zr  Zr146  1  0.08333333  0.72676100  0.22574075  1.0
  Zr  Zr147  1  0.41666667  0.06009433  0.22574075  1.0
  Zr  Zr148  1  0.41666667  0.39342767  0.22574075  1.0
  Zr  Zr149  1  0.41666667  0.72676100  0.22574075  1.0
  Zr  Zr150  1  0.75000000  0.06009433  0.22574075  1.0
  Zr  Zr151  1  0.75000000  0.39342767  0.22574075  1.0
  Zr  Zr152  1  0.75000000  0.72676100  0.22574075  1.0
  Zr  Zr153  1  0.08333333  0.22676100  0.18407408  1.0
  Zr  Zr154  1  0.08333333  0.56009433  0.18407408  1.0
  Zr  Zr155  1  0.08333333  0.89342767  0.18407408  1.0
  Zr  Zr156  1  0.41666667  0.22676100  0.18407408  1.0
  Zr  Zr157  1  0.41666667  0.56009433  0.18407408  1.0
  Zr  Zr158  1  0.41666667  0.89342767  0.18407408  1.0
  Zr  Zr159  1  0.75000000  0.22676100  0.18407408  1.0
  Zr  Zr160  1  0.75000000  0.56009433  0.18407408  1.0
  Zr  Zr161  1  0.75000000  0.89342767  0.18407408  1.0
  Zr  Zr162  1  0.25000000  0.10657233  0.21412125  1.0
  Zr  Zr163  1  0.25000000  0.43990567  0.21412125  1.0
  Zr  Zr164  1  0.25000000  0.77323900  0.21412125  1.0
  Zr  Zr165  1  0.58333333  0.10657233  0.21412125  1.0
  Zr  Zr166  1  0.58333333  0.43990567  0.21412125  1.0
  Zr  Zr167  1  0.58333333  0.77323900  0.21412125  1.0
  Zr  Zr168  1  0.91666667  0.10657233  0.21412125  1.0
  Zr  Zr169  1  0.91666667  0.43990567  0.21412125  1.0
  Zr  Zr170  1  0.91666667  0.77323900  0.21412125  1.0
  Zr  Zr171  1  0.25000000  0.27323900  0.17245458  1.0
  Zr  Zr172  1  0.25000000  0.60657233  0.17245458  1.0
  Zr  Zr173  1  0.25000000  0.93990567  0.17245458  1.0
  Zr  Zr174  1  0.58333333  0.27323900  0.17245458  1.0
  Zr  Zr175  1  0.58333333  0.60657233  0.17245458  1.0
  Zr  Zr176  1  0.58333333  0.93990567  0.17245458  1.0
  Zr  Zr177  1  0.91666667  0.27323900  0.17245458  1.0
  Zr  Zr178  1  0.91666667  0.60657233  0.17245458  1.0
  Zr  Zr179  1  0.91666667  0.93990567  0.17245458  1.0
  Ni  Ni180  1  0.08333333  0.01379100  0.23731658  1.0
  Ni  Ni181  1  0.08333333  0.34712433  0.23731658  1.0
  Ni  Ni182  1  0.08333333  0.68045767  0.23731658  1.0
  Ni  Ni183  1  0.41666667  0.01379100  0.23731658  1.0
  Ni  Ni184  1  0.41666667  0.34712433  0.23731658  1.0
  Ni  Ni185  1  0.41666667  0.68045767  0.23731658  1.0
  Ni  Ni186  1  0.75000000  0.01379100  0.23731658  1.0
  Ni  Ni187  1  0.75000000  0.34712433  0.23731658  1.0
  Ni  Ni188  1  0.75000000  0.68045767  0.23731658  1.0
  Ni  Ni189  1  0.08333333  0.18045767  0.19564992  1.0
  Ni  Ni190  1  0.08333333  0.51379100  0.19564992  1.0
  Ni  Ni191  1  0.08333333  0.84712433  0.19564992  1.0
  Ni  Ni192  1  0.41666667  0.18045767  0.19564992  1.0
  Ni  Ni193  1  0.41666667  0.51379100  0.19564992  1.0
  Ni  Ni194  1  0.41666667  0.84712433  0.19564992  1.0
  Ni  Ni195  1  0.75000000  0.18045767  0.19564992  1.0
  Ni  Ni196  1  0.75000000  0.51379100  0.19564992  1.0
  Ni  Ni197  1  0.75000000  0.84712433  0.19564992  1.0
  Ni  Ni198  1  0.25000000  0.15287567  0.20254542  1.0
  Ni  Ni199  1  0.25000000  0.48620900  0.20254542  1.0
  Ni  Ni200  1  0.25000000  0.81954233  0.20254542  1.0
  Ni  Ni201  1  0.58333333  0.15287567  0.20254542  1.0
  Ni  Ni202  1  0.58333333  0.48620900  0.20254542  1.0
  Ni  Ni203  1  0.58333333  0.81954233  0.20254542  1.0
  Ni  Ni204  1  0.91666667  0.15287567  0.20254542  1.0
  Ni  Ni205  1  0.91666667  0.48620900  0.20254542  1.0
  Ni  Ni206  1  0.91666667  0.81954233  0.20254542  1.0
  Ni  Ni207  1  0.25000000  0.31954233  0.24421208  1.0
  Ni  Ni208  1  0.25000000  0.65287567  0.24421208  1.0
  Ni  Ni209  1  0.25000000  0.98620900  0.24421208  1.0
  Ni  Ni210  1  0.58333333  0.31954233  0.24421208  1.0
  Ni  Ni211  1  0.58333333  0.65287567  0.24421208  1.0
  Ni  Ni212  1  0.58333333  0.98620900  0.24421208  1.0
  Ni  Ni213  1  0.91666667  0.31954233  0.24421208  1.0
  Ni  Ni214  1  0.91666667  0.65287567  0.24421208  1.0
  Ni  Ni215  1  0.91666667  0.98620900  0.24421208  1.0
  Zr  Zr216  1  0.08333333  0.06009433  0.30907408  1.0
  Zr  Zr217  1  0.08333333  0.39342767  0.30907408  1.0
  Zr  Zr218  1  0.08333333  0.72676100  0.30907408  1.0
  Zr  Zr219  1  0.41666667  0.06009433  0.30907408  1.0
  Zr  Zr220  1  0.41666667  0.39342767  0.30907408  1.0
  Zr  Zr221  1  0.41666667  0.72676100  0.30907408  1.0
  Zr  Zr222  1  0.75000000  0.06009433  0.30907408  1.0
  Zr  Zr223  1  0.75000000  0.39342767  0.30907408  1.0
  Zr  Zr224  1  0.75000000  0.72676100  0.30907408  1.0
  Zr  Zr225  1  0.08333333  0.22676100  0.26740742  1.0
  Zr  Zr226  1  0.08333333  0.56009433  0.26740742  1.0
  Zr  Zr227  1  0.08333333  0.89342767  0.26740742  1.0
  Zr  Zr228  1  0.41666667  0.22676100  0.26740742  1.0
  Zr  Zr229  1  0.41666667  0.56009433  0.26740742  1.0
  Zr  Zr230  1  0.41666667  0.89342767  0.26740742  1.0
  Zr  Zr231  1  0.75000000  0.22676100  0.26740742  1.0
  Zr  Zr232  1  0.75000000  0.56009433  0.26740742  1.0
  Zr  Zr233  1  0.75000000  0.89342767  0.26740742  1.0
  Zr  Zr234  1  0.25000000  0.10657233  0.29745458  1.0
  Zr  Zr235  1  0.25000000  0.43990567  0.29745458  1.0
  Zr  Zr236  1  0.25000000  0.77323900  0.29745458  1.0
  Zr  Zr237  1  0.58333333  0.10657233  0.29745458  1.0
  Zr  Zr238  1  0.58333333  0.43990567  0.29745458  1.0
  Zr  Zr239  1  0.58333333  0.77323900  0.29745458  1.0
  Zr  Zr240  1  0.91666667  0.10657233  0.29745458  1.0
  Zr  Zr241  1  0.91666667  0.43990567  0.29745458  1.0
  Zr  Zr242  1  0.91666667  0.77323900  0.29745458  1.0
  Zr  Zr243  1  0.25000000  0.27323900  0.25578792  1.0
  Zr  Zr244  1  0.25000000  0.60657233  0.25578792  1.0
  Zr  Zr245  1  0.25000000  0.93990567  0.25578792  1.0
  Zr  Zr246  1  0.58333333  0.27323900  0.25578792  1.0
  Zr  Zr247  1  0.58333333  0.60657233  0.25578792  1.0
  Zr  Zr248  1  0.58333333  0.93990567  0.25578792  1.0
  Zr  Zr249  1  0.91666667  0.27323900  0.25578792  1.0
  Zr  Zr250  1  0.91666667  0.60657233  0.25578792  1.0
  Zr  Zr251  1  0.91666667  0.93990567  0.25578792  1.0
  Ni  Ni252  1  0.08333333  0.01379100  0.32064992  1.0
  Ni  Ni253  1  0.08333333  0.34712433  0.32064992  1.0
  Ni  Ni254  1  0.08333333  0.68045767  0.32064992  1.0
  Ni  Ni255  1  0.41666667  0.01379100  0.32064992  1.0
  Ni  Ni256  1  0.41666667  0.34712433  0.32064992  1.0
  Ni  Ni257  1  0.41666667  0.68045767  0.32064992  1.0
  Ni  Ni258  1  0.75000000  0.01379100  0.32064992  1.0
  Ni  Ni259  1  0.75000000  0.34712433  0.32064992  1.0
  Ni  Ni260  1  0.75000000  0.68045767  0.32064992  1.0
  Ni  Ni261  1  0.08333333  0.18045767  0.27898325  1.0
  Ni  Ni262  1  0.08333333  0.51379100  0.27898325  1.0
  Ni  Ni263  1  0.08333333  0.84712433  0.27898325  1.0
  Ni  Ni264  1  0.41666667  0.18045767  0.27898325  1.0
  Ni  Ni265  1  0.41666667  0.51379100  0.27898325  1.0
  Ni  Ni266  1  0.41666667  0.84712433  0.27898325  1.0
  Ni  Ni267  1  0.75000000  0.18045767  0.27898325  1.0
  Ni  Ni268  1  0.75000000  0.51379100  0.27898325  1.0
  Ni  Ni269  1  0.75000000  0.84712433  0.27898325  1.0
  Ni  Ni270  1  0.25000000  0.15287567  0.28587875  1.0
  Ni  Ni271  1  0.25000000  0.48620900  0.28587875  1.0
  Ni  Ni272  1  0.25000000  0.81954233  0.28587875  1.0
  Ni  Ni273  1  0.58333333  0.15287567  0.28587875  1.0
  Ni  Ni274  1  0.58333333  0.48620900  0.28587875  1.0
  Ni  Ni275  1  0.58333333  0.81954233  0.28587875  1.0
  Ni  Ni276  1  0.91666667  0.15287567  0.28587875  1.0
  Ni  Ni277  1  0.91666667  0.48620900  0.28587875  1.0
  Ni  Ni278  1  0.91666667  0.81954233  0.28587875  1.0
  Ni  Ni279  1  0.25000000  0.31954233  0.32754542  1.0
  Ni  Ni280  1  0.25000000  0.65287567  0.32754542  1.0
  Ni  Ni281  1  0.25000000  0.98620900  0.32754542  1.0
  Ni  Ni282  1  0.58333333  0.31954233  0.32754542  1.0
  Ni  Ni283  1  0.58333333  0.65287567  0.32754542  1.0
  Ni  Ni284  1  0.58333333  0.98620900  0.32754542  1.0
  Ni  Ni285  1  0.91666667  0.31954233  0.32754542  1.0
  Ni  Ni286  1  0.91666667  0.65287567  0.32754542  1.0
  Ni  Ni287  1  0.91666667  0.98620900  0.32754542  1.0
  Zr  Zr288  1  0.08333333  0.06009433  0.39240742  1.0
  Zr  Zr289  1  0.08333333  0.39342767  0.39240742  1.0
  Zr  Zr290  1  0.08333333  0.72676100  0.39240742  1.0
  Zr  Zr291  1  0.41666667  0.06009433  0.39240742  1.0
  Zr  Zr292  1  0.41666667  0.39342767  0.39240742  1.0
  Zr  Zr293  1  0.41666667  0.72676100  0.39240742  1.0
  Zr  Zr294  1  0.75000000  0.06009433  0.39240742  1.0
  Zr  Zr295  1  0.75000000  0.39342767  0.39240742  1.0
  Zr  Zr296  1  0.75000000  0.72676100  0.39240742  1.0
  Zr  Zr297  1  0.08333333  0.22676100  0.35074075  1.0
  Zr  Zr298  1  0.08333333  0.56009433  0.35074075  1.0
  Zr  Zr299  1  0.08333333  0.89342767  0.35074075  1.0
  Zr  Zr300  1  0.41666667  0.22676100  0.35074075  1.0
  Zr  Zr301  1  0.41666667  0.56009433  0.35074075  1.0
  Zr  Zr302  1  0.41666667  0.89342767  0.35074075  1.0
  Zr  Zr303  1  0.75000000  0.22676100  0.35074075  1.0
  Zr  Zr304  1  0.75000000  0.56009433  0.35074075  1.0
  Zr  Zr305  1  0.75000000  0.89342767  0.35074075  1.0
  Zr  Zr306  1  0.25000000  0.10657233  0.38078792  1.0
  Zr  Zr307  1  0.25000000  0.43990567  0.38078792  1.0
  Zr  Zr308  1  0.25000000  0.77323900  0.38078792  1.0
  Zr  Zr309  1  0.58333333  0.10657233  0.38078792  1.0
  Zr  Zr310  1  0.58333333  0.43990567  0.38078792  1.0
  Zr  Zr311  1  0.58333333  0.77323900  0.38078792  1.0
  Zr  Zr312  1  0.91666667  0.10657233  0.38078792  1.0
  Zr  Zr313  1  0.91666667  0.43990567  0.38078792  1.0
  Zr  Zr314  1  0.91666667  0.77323900  0.38078792  1.0
  Zr  Zr315  1  0.25000000  0.27323900  0.33912125  1.0
  Zr  Zr316  1  0.25000000  0.60657233  0.33912125  1.0
  Zr  Zr317  1  0.25000000  0.93990567  0.33912125  1.0
  Zr  Zr318  1  0.58333333  0.27323900  0.33912125  1.0
  Zr  Zr319  1  0.58333333  0.60657233  0.33912125  1.0
  Zr  Zr320  1  0.58333333  0.93990567  0.33912125  1.0
  Zr  Zr321  1  0.91666667  0.27323900  0.33912125  1.0
  Zr  Zr322  1  0.91666667  0.60657233  0.33912125  1.0
  Zr  Zr323  1  0.91666667  0.93990567  0.33912125  1.0
  Ni  Ni324  1  0.08333333  0.01379100  0.40398325  1.0
  Ni  Ni325  1  0.08333333  0.34712433  0.40398325  1.0
  Ni  Ni326  1  0.08333333  0.68045767  0.40398325  1.0
  Ni  Ni327  1  0.41666667  0.01379100  0.40398325  1.0
  Ni  Ni328  1  0.41666667  0.34712433  0.40398325  1.0
  Ni  Ni329  1  0.41666667  0.68045767  0.40398325  1.0
  Ni  Ni330  1  0.75000000  0.01379100  0.40398325  1.0
  Ni  Ni331  1  0.75000000  0.34712433  0.40398325  1.0
  Ni  Ni332  1  0.75000000  0.68045767  0.40398325  1.0
  Ni  Ni333  1  0.08333333  0.18045767  0.36231658  1.0
  Ni  Ni334  1  0.08333333  0.51379100  0.36231658  1.0
  Ni  Ni335  1  0.08333333  0.84712433  0.36231658  1.0
  Ni  Ni336  1  0.41666667  0.18045767  0.36231658  1.0
  Ni  Ni337  1  0.41666667  0.51379100  0.36231658  1.0
  Ni  Ni338  1  0.41666667  0.84712433  0.36231658  1.0
  Ni  Ni339  1  0.75000000  0.18045767  0.36231658  1.0
  Ni  Ni340  1  0.75000000  0.51379100  0.36231658  1.0
  Ni  Ni341  1  0.75000000  0.84712433  0.36231658  1.0
  Ni  Ni342  1  0.25000000  0.15287567  0.36921208  1.0
  Ni  Ni343  1  0.25000000  0.48620900  0.36921208  1.0
  Ni  Ni344  1  0.25000000  0.81954233  0.36921208  1.0
  Ni  Ni345  1  0.58333333  0.15287567  0.36921208  1.0
  Ni  Ni346  1  0.58333333  0.48620900  0.36921208  1.0
  Ni  Ni347  1  0.58333333  0.81954233  0.36921208  1.0
  Ni  Ni348  1  0.91666667  0.15287567  0.36921208  1.0
  Ni  Ni349  1  0.91666667  0.48620900  0.36921208  1.0
  Ni  Ni350  1  0.91666667  0.81954233  0.36921208  1.0
  Ni  Ni351  1  0.25000000  0.31954233  0.41087875  1.0
  Ni  Ni352  1  0.25000000  0.65287567  0.41087875  1.0
  Ni  Ni353  1  0.25000000  0.98620900  0.41087875  1.0
  Ni  Ni354  1  0.58333333  0.31954233  0.41087875  1.0
  Ni  Ni355  1  0.58333333  0.65287567  0.41087875  1.0
  Ni  Ni356  1  0.58333333  0.98620900  0.41087875  1.0
  Ni  Ni357  1  0.91666667  0.31954233  0.41087875  1.0
  Ni  Ni358  1  0.91666667  0.65287567  0.41087875  1.0
  Ni  Ni359  1  0.91666667  0.98620900  0.41087875  1.0
