# generated using pymatgen
data_ZrNi
_symmetry_space_group_name_H-M   'P 1'
_cell_length_a   9.91707000
_cell_length_b   33.80680496
_cell_length_c   28.59891300
_cell_angle_alpha   111.25691920
_cell_angle_beta   90.00000000
_cell_angle_gamma   72.94165447
_symmetry_Int_Tables_number   1
_chemical_formula_structural   ZrNi
_chemical_formula_sum   'Zr108 Ni108'
_cell_volume   8481.65786346
_cell_formula_units_Z   108
loop_
 _symmetry_equiv_pos_site_id
 _symmetry_equiv_pos_as_xyz
  1  'x, y, z'
loop_
 _atom_site_type_symbol
 _atom_site_label
 _atom_site_symmetry_multiplicity
 _atom_site_fract_x
 _atom_site_fract_y
 _atom_site_fract_z
 _atom_site_occupancy
  Zr  Zr0  1  0.12018867  0.21314467  0.10721771  1.0
  Zr  Zr1  1  0.12018867  0.54647800  0.10721771  1.0
  Zr  Zr2  1  0.12018867  0.87981133  0.10721771  1.0
  Zr  Zr3  1  0.45352200  0.21314467  0.10721771  1.0
  Zr  Zr4  1  0.45352200  0.54647800  0.10721771  1.0
  Zr  Zr5  1  0.45352200  0.87981133  0.10721771  1.0
  Zr  Zr6  1  0.78685533  0.21314467  0.10721771  1.0
  Zr  Zr7  1  0.78685533  0.54647800  0.10721771  1.0
  Zr  Zr8  1  0.78685533  0.87981133  0.10721771  1.0
  Zr  Zr9  1  0.12018867  0.04647800  0.03578914  1.0
  Zr  Zr10  1  0.12018867  0.37981133  0.03578914  1.0
  Zr  Zr11  1  0.12018867  0.71314467  0.03578914  1.0
  Zr  Zr12  1  0.45352200  0.04647800  0.03578914  1.0
  Zr  Zr13  1  0.45352200  0.37981133  0.03578914  1.0
  Zr  Zr14  1  0.45352200  0.71314467  0.03578914  1.0
  Zr  Zr15  1  0.78685533  0.04647800  0.03578914  1.0
  Zr  Zr16  1  0.78685533  0.37981133  0.03578914  1.0
  Zr  Zr17  1  0.78685533  0.71314467  0.03578914  1.0
  Zr  Zr18  1  0.21314467  0.12018867  0.13880800  1.0
  Zr  Zr19  1  0.21314467  0.45352200  0.13880800  1.0
  Zr  Zr20  1  0.21314467  0.78685533  0.13880800  1.0
  Zr  Zr21  1  0.54647800  0.12018867  0.13880800  1.0
  Zr  Zr22  1  0.54647800  0.45352200  0.13880800  1.0
  Zr  Zr23  1  0.54647800  0.78685533  0.13880800  1.0
  Zr  Zr24  1  0.87981133  0.12018867  0.13880800  1.0
  Zr  Zr25  1  0.87981133  0.45352200  0.13880800  1.0
  Zr  Zr26  1  0.87981133  0.78685533  0.13880800  1.0
  Zr  Zr27  1  0.21314467  0.28685533  0.06737943  1.0
  Zr  Zr28  1  0.21314467  0.62018867  0.06737943  1.0
  Zr  Zr29  1  0.21314467  0.95352200  0.06737943  1.0
  Zr  Zr30  1  0.54647800  0.28685533  0.06737943  1.0
  Zr  Zr31  1  0.54647800  0.62018867  0.06737943  1.0
  Zr  Zr32  1  0.54647800  0.95352200  0.06737943  1.0
  Zr  Zr33  1  0.87981133  0.28685533  0.06737943  1.0
  Zr  Zr34  1  0.87981133  0.62018867  0.06737943  1.0
  Zr  Zr35  1  0.87981133  0.95352200  0.06737943  1.0
  Ni  Ni36  1  0.02758200  0.30575133  0.00404914  1.0
  Ni  Ni37  1  0.02758200  0.63908467  0.00404914  1.0
  Ni  Ni38  1  0.02758200  0.97241800  0.00404914  1.0
  Ni  Ni39  1  0.36091533  0.30575133  0.00404914  1.0
  Ni  Ni40  1  0.36091533  0.63908467  0.00404914  1.0
  Ni  Ni41  1  0.36091533  0.97241800  0.00404914  1.0
  Ni  Ni42  1  0.69424867  0.30575133  0.00404914  1.0
  Ni  Ni43  1  0.69424867  0.63908467  0.00404914  1.0
  Ni  Ni44  1  0.69424867  0.97241800  0.00404914  1.0
  Ni  Ni45  1  0.02758200  0.13908467  0.07547771  1.0
  Ni  Ni46  1  0.02758200  0.47241800  0.07547771  1.0
  Ni  Ni47  1  0.02758200  0.80575133  0.07547771  1.0
  Ni  Ni48  1  0.36091533  0.13908467  0.07547771  1.0
  Ni  Ni49  1  0.36091533  0.47241800  0.07547771  1.0
  Ni  Ni50  1  0.36091533  0.80575133  0.07547771  1.0
  Ni  Ni51  1  0.69424867  0.13908467  0.07547771  1.0
  Ni  Ni52  1  0.69424867  0.47241800  0.07547771  1.0
  Ni  Ni53  1  0.69424867  0.80575133  0.07547771  1.0
  Ni  Ni54  1  0.30575133  0.02758200  0.09911943  1.0
  Ni  Ni55  1  0.30575133  0.36091533  0.09911943  1.0
  Ni  Ni56  1  0.30575133  0.69424867  0.09911943  1.0
  Ni  Ni57  1  0.63908467  0.02758200  0.09911943  1.0
  Ni  Ni58  1  0.63908467  0.36091533  0.09911943  1.0
  Ni  Ni59  1  0.63908467  0.69424867  0.09911943  1.0
  Ni  Ni60  1  0.97241800  0.02758200  0.09911943  1.0
  Ni  Ni61  1  0.97241800  0.36091533  0.09911943  1.0
  Ni  Ni62  1  0.97241800  0.69424867  0.09911943  1.0
  Ni  Ni63  1  0.30575133  0.19424867  0.02769086  1.0
  Ni  Ni64  1  0.30575133  0.52758200  0.02769086  1.0
  Ni  Ni65  1  0.30575133  0.86091533  0.02769086  1.0
  Ni  Ni66  1  0.63908467  0.19424867  0.02769086  1.0
  Ni  Ni67  1  0.63908467  0.52758200  0.02769086  1.0
  Ni  Ni68  1  0.63908467  0.86091533  0.02769086  1.0
  Ni  Ni69  1  0.97241800  0.19424867  0.02769086  1.0
  Ni  Ni70  1  0.97241800  0.52758200  0.02769086  1.0
  Ni  Ni71  1  0.97241800  0.86091533  0.02769086  1.0
  Zr  Zr72  1  0.12018867  0.21314467  0.25007486  1.0
  Zr  Zr73  1  0.12018867  0.54647800  0.25007486  1.0
  Zr  Zr74  1  0.12018867  0.87981133  0.25007486  1.0
  Zr  Zr75  1  0.45352200  0.21314467  0.25007486  1.0
  Zr  Zr76  1  0.45352200  0.54647800  0.25007486  1.0
  Zr  Zr77  1  0.45352200  0.87981133  0.25007486  1.0
  Zr  Zr78  1  0.78685533  0.21314467  0.25007486  1.0
  Zr  Zr79  1  0.78685533  0.54647800  0.25007486  1.0
  Zr  Zr80  1  0.78685533  0.87981133  0.25007486  1.0
  Zr  Zr81  1  0.12018867  0.04647800  0.17864629  1.0
  Zr  Zr82  1  0.12018867  0.37981133  0.17864629  1.0
  Zr  Zr83  1  0.12018867  0.71314467  0.17864629  1.0
  Zr  Zr84  1  0.45352200  0.04647800  0.17864629  1.0
  Zr  Zr85  1  0.45352200  0.37981133  0.17864629  1.0
  Zr  Zr86  1  0.45352200  0.71314467  0.17864629  1.0
  Zr  Zr87  1  0.78685533  0.04647800  0.17864629  1.0
  Zr  Zr88  1  0.78685533  0.37981133  0.17864629  1.0
  Zr  Zr89  1  0.78685533  0.71314467  0.17864629  1.0
  Zr  Zr90  1  0.21314467  0.12018867  0.28166514  1.0
  Zr  Zr91  1  0.21314467  0.45352200  0.28166514  1.0
  Zr  Zr92  1  0.21314467  0.78685533  0.28166514  1.0
  Zr  Zr93  1  0.54647800  0.12018867  0.28166514  1.0
  Zr  Zr94  1  0.54647800  0.45352200  0.28166514  1.0
  Zr  Zr95  1  0.54647800  0.78685533  0.28166514  1.0
  Zr  Zr96  1  0.87981133  0.12018867  0.28166514  1.0
  Zr  Zr97  1  0.87981133  0.45352200  0.28166514  1.0
  Zr  Zr98  1  0.87981133  0.78685533  0.28166514  1.0
  Zr  Zr99  1  0.21314467  0.28685533  0.21023657  1.0
  Zr  Zr100  1  0.21314467  0.62018867  0.21023657  1.0
  Zr  Zr101  1  0.21314467  0.95352200  0.21023657  1.0
  Zr  Zr102  1  0.54647800  0.28685533  0.21023657  1.0
  Zr  Zr103  1  0.54647800  0.62018867  0.21023657  1.0
  Zr  Zr104  1  0.54647800  0.95352200  0.21023657  1.0
  Zr  Zr105  1  0.87981133  0.28685533  0.21023657  1.0
  Zr  Zr106  1  0.87981133  0.62018867  0.21023657  1.0
  Zr  Zr107  1  0.87981133  0.95352200  0.21023657  1.0
  Ni  Ni108  1  0.02758200  0.30575133  0.14690629  1.0
  Ni  Ni109  1  0.02758200  0.63908467  0.14690629  1.0
  Ni  Ni110  1  0.02758200  0.97241800  0.14690629  1.0
  Ni  Ni111  1  0.36091533  0.30575133  0.14690629  1.0
  Ni  Ni112  1  0.36091533  0.63908467  0.14690629  1.0
  Ni  Ni113  1  0.36091533  0.97241800  0.14690629  1.0
  Ni  Ni114  1  0.69424867  0.30575133  0.14690629  1.0
  Ni  Ni115  1  0.69424867  0.63908467  0.14690629  1.0
  Ni  Ni116  1  0.69424867  0.97241800  0.14690629  1.0
  Ni  Ni117  1  0.02758200  0.13908467  0.21833486  1.0
  Ni  Ni118  1  0.02758200  0.47241800  0.21833486  1.0
  Ni  Ni119  1  0.02758200  0.80575133  0.21833486  1.0
  Ni  Ni120  1  0.36091533  0.13908467  0.21833486  1.0
  Ni  Ni121  1  0.36091533  0.47241800  0.21833486  1.0
  Ni  Ni122  1  0.36091533  0.80575133  0.21833486  1.0
  Ni  Ni123  1  0.69424867  0.13908467  0.21833486  1.0
  Ni  Ni124  1  0.69424867  0.47241800  0.21833486  1.0
  Ni  Ni125  1  0.69424867  0.80575133  0.21833486  1.0
  Ni  Ni126  1  0.30575133  0.02758200  0.24197657  1.0
  Ni  Ni127  1  0.30575133  0.36091533  0.24197657  1.0
  Ni  Ni128  1  0.30575133  0.69424867  0.24197657  1.0
  Ni  Ni129  1  0.63908467  0.02758200  0.24197657  1.0
  Ni  Ni130  1  0.63908467  0.36091533  0.24197657  1.0
  Ni  Ni131  1  0.63908467  0.69424867  0.24197657  1.0
  Ni  Ni132  1  0.97241800  0.02758200  0.24197657  1.0
  Ni  Ni133  1  0.97241800  0.36091533  0.24197657  1.0
  Ni  Ni134  1  0.97241800  0.69424867  0.24197657  1.0
  Ni  Ni135  1  0.30575133  0.19424867  0.17054800  1.0
  Ni  Ni136  1  0.30575133  0.52758200  0.17054800  1.0
  Ni  Ni137  1  0.30575133  0.86091533  0.17054800  1.0
  Ni  Ni138  1  0.63908467  0.19424867  0.17054800  1.0
  Ni  Ni139  1  0.63908467  0.52758200  0.17054800  1.0
  Ni  Ni140  1  0.63908467  0.86091533  0.17054800  1.0
  Ni  Ni141  1  0.97241800  0.19424867  0.17054800  1.0
  Ni  Ni142  1  0.97241800  0.52758200  0.17054800  1.0
  Ni  Ni143  1  0.97241800  0.86091533  0.17054800  1.0
  Zr  Zr144  1  0.12018867  0.21314467  0.39293200  1.0
  Zr  Zr145  1  0.12018867  0.54647800  0.39293200  1.0
  Zr  Zr146  1  0.12018867  0.87981133  0.39293200  1.0
  Zr  Zr147  1  0.45352200  0.21314467  0.39293200  1.0
  Zr  Zr148  1  0.45352200  0.54647800  0.39293200  1.0
  Zr  Zr149  1  0.45352200  0.87981133  0.39293200  1.0
  Zr  Zr150  1  0.78685533  0.21314467  0.39293200  1.0
  Zr  Zr151  1  0.78685533  0.54647800  0.39293200  1.0
  Zr  Zr152  1  0.78685533  0.87981133  0.39293200  1.0
  Zr  Zr153  1  0.12018867  0.04647800  0.32150343  1.0
  Zr  Zr154  1  0.12018867  0.37981133  0.32150343  1.0
  Zr  Zr155  1  0.12018867  0.71314467  0.32150343  1.0
  Zr  Zr156  1  0.45352200  0.04647800  0.32150343  1.0
  Zr  Zr157  1  0.45352200  0.37981133  0.32150343  1.0
  Zr  Zr158  1  0.45352200  0.71314467  0.32150343  1.0
  Zr  Zr159  1  0.78685533  0.04647800  0.32150343  1.0
  Zr  Zr160  1  0.78685533  0.37981133  0.32150343  1.0
  Zr  Zr161  1  0.78685533  0.71314467  0.32150343  1.0
  Zr  Zr162  1  0.21314467  0.12018867  0.42452229  1.0
  Zr  Zr163  1  0.21314467  0.45352200  0.42452229  1.0
  Zr  Zr164  1  0.21314467  0.78685533  0.42452229  1.0
  Zr  Zr165  1  0.54647800  0.12018867  0.42452229  1.0
  Zr  Zr166  1  0.54647800  0.45352200  0.42452229  1.0
  Zr  Zr167  1  0.54647800  0.78685533  0.42452229  1.0
  Zr  Zr168  1  0.87981133  0.12018867  0.42452229  1.0
  Zr  Zr169  1  0.87981133  0.45352200  0.42452229  1.0
  Zr  Zr170  1  0.87981133  0.78685533  0.42452229  1.0
  Zr  Zr171  1  0.21314467  0.28685533  0.35309371  1.0
  Zr  Zr172  1  0.21314467  0.62018867  0.35309371  1.0
  Zr  Zr173  1  0.21314467  0.95352200  0.35309371  1.0
  Zr  Zr174  1  0.54647800  0.28685533  0.35309371  1.0
  Zr  Zr175  1  0.54647800  0.62018867  0.35309371  1.0
  Zr  Zr176  1  0.54647800  0.95352200  0.35309371  1.0
  Zr  Zr177  1  0.87981133  0.28685533  0.35309371  1.0
  Zr  Zr178  1  0.87981133  0.62018867  0.35309371  1.0
  Zr  Zr179  1  0.87981133  0.95352200  0.35309371  1.0
  Ni  Ni180  1  0.02758200  0.30575133  0.28976343  1.0
  Ni  Ni181  1  0.02758200  0.63908467  0.28976343  1.0
  Ni  Ni182  1  0.02758200  0.97241800  0.28976343  1.0
  Ni  Ni183  1  0.36091533  0.30575133  0.28976343  1.0
  Ni  Ni184  1  0.36091533  0.63908467  0.28976343  1.0
  Ni  Ni185  1  0.36091533  0.97241800  0.28976343  1.0
  Ni  Ni186  1  0.69424867  0.30575133  0.28976343  1.0
  Ni  Ni187  1  0.69424867  0.63908467  0.28976343  1.0
  Ni  Ni188  1  0.69424867  0.97241800  0.28976343  1.0
  Ni  Ni189  1  0.02758200  0.13908467  0.36119200  1.0
  Ni  Ni190  1  0.02758200  0.47241800  0.36119200  1.0
  Ni  Ni191  1  0.02758200  0.80575133  0.36119200  1.0
  Ni  Ni192  1  0.36091533  0.13908467  0.36119200  1.0
  Ni  Ni193  1  0.36091533  0.47241800  0.36119200  1.0
  Ni  Ni194  1  0.36091533  0.80575133  0.36119200  1.0
  Ni  Ni195  1  0.69424867  0.13908467  0.36119200  1.0
  Ni  Ni196  1  0.69424867  0.47241800  0.36119200  1.0
  Ni  Ni197  1  0.69424867  0.80575133  0.36119200  1.0
  Ni  Ni198  1  0.30575133  0.02758200  0.38483371  1.0
  Ni  Ni199  1  0.30575133  0.36091533  0.38483371  1.0
  Ni  Ni200  1  0.30575133  0.69424867  0.38483371  1.0
  Ni  Ni201  1  0.63908467  0.02758200  0.38483371  1.0
  Ni  Ni202  1  0.63908467  0.36091533  0.38483371  1.0
  Ni  Ni203  1  0.63908467  0.69424867  0.38483371  1.0
  Ni  Ni204  1  0.97241800  0.02758200  0.38483371  1.0
  Ni  Ni205  1  0.97241800  0.36091533  0.38483371  1.0
  Ni  Ni206  1  0.97241800  0.69424867  0.38483371  1.0
  Ni  Ni207  1  0.30575133  0.19424867  0.31340514  1.0
  Ni  Ni208  1  0.30575133  0.52758200  0.31340514  1.0
  Ni  Ni209  1  0.30575133  0.86091533  0.31340514  1.0
  Ni  Ni210  1  0.63908467  0.19424867  0.31340514  1.0
  Ni  Ni211  1  0.63908467  0.52758200  0.31340514  1.0
  Ni  Ni212  1  0.63908467  0.86091533  0.31340514  1.0
  Ni  Ni213  1  0.97241800  0.19424867  0.31340514  1.0
  Ni  Ni214  1  0.97241800  0.52758200  0.31340514  1.0
  Ni  Ni215  1  0.97241800  0.86091533  0.31340514  1.0
