# generated using pymatgen
data_ZrNi5
_symmetry_space_group_name_H-M   'P 1'
_cell_length_a   14.19967716
_cell_length_b   37.56881446
_cell_length_c   42.59903148
_cell_angle_alpha   40.89339465
_cell_angle_beta   60.00000000
_cell_angle_gamma   55.46241621
_symmetry_Int_Tables_number   1
_chemical_formula_structural   ZrNi5
_chemical_formula_sum   'Zr72 Ni360'
_cell_volume   12147.07363121
_cell_formula_units_Z   72
loop_
 _symmetry_equiv_pos_site_id
 _symmetry_equiv_pos_as_xyz
  1  'x, y, z'
loop_
 _atom_site_type_symbol
 _atom_site_label
 _atom_site_symmetry_multiplicity
 _atom_site_fract_x
 _atom_site_fract_y
 _atom_site_fract_z
 _atom_site_occupancy
  Zr  Zr0  1  0.00000000  0.00000000  0.10778162  1.0
  Zr  Zr1  1  0.00000000  0.33333333  0.10778162  1.0
  Zr  Zr2  1  0.00000000  0.66666667  0.10778162  1.0
  Zr  Zr3  1  0.33333333  0.00000000  0.10778162  1.0
  Zr  Zr4  1  0.33333333  0.33333333  0.10778162  1.0
  Zr  Zr5  1  0.33333333  0.66666667  0.10778162  1.0
  Zr  Zr6  1  0.66666667  0.00000000  0.10778162  1.0
  Zr  Zr7  1  0.66666667  0.33333333  0.10778162  1.0
  Zr  Zr8  1  0.66666667  0.66666667  0.10778162  1.0
  Zr  Zr9  1  0.00000000  0.16666667  0.05222606  1.0
  Zr  Zr10  1  0.00000000  0.50000000  0.05222606  1.0
  Zr  Zr11  1  0.00000000  0.83333333  0.05222606  1.0
  Zr  Zr12  1  0.33333333  0.16666667  0.05222606  1.0
  Zr  Zr13  1  0.33333333  0.50000000  0.05222606  1.0
  Zr  Zr14  1  0.33333333  0.83333333  0.05222606  1.0
  Zr  Zr15  1  0.66666667  0.16666667  0.05222606  1.0
  Zr  Zr16  1  0.66666667  0.50000000  0.05222606  1.0
  Zr  Zr17  1  0.66666667  0.83333333  0.05222606  1.0
  Ni  Ni18  1  0.08333333  0.04166667  0.01055940  1.0
  Ni  Ni19  1  0.08333333  0.37500000  0.01055940  1.0
  Ni  Ni20  1  0.08333333  0.70833333  0.01055940  1.0
  Ni  Ni21  1  0.41666667  0.04166667  0.01055940  1.0
  Ni  Ni22  1  0.41666667  0.37500000  0.01055940  1.0
  Ni  Ni23  1  0.41666667  0.70833333  0.01055940  1.0
  Ni  Ni24  1  0.75000000  0.04166667  0.01055940  1.0
  Ni  Ni25  1  0.75000000  0.37500000  0.01055940  1.0
  Ni  Ni26  1  0.75000000  0.70833333  0.01055940  1.0
  Ni  Ni27  1  0.08333333  0.20833333  0.06611495  1.0
  Ni  Ni28  1  0.08333333  0.54166667  0.06611495  1.0
  Ni  Ni29  1  0.08333333  0.87500000  0.06611495  1.0
  Ni  Ni30  1  0.41666667  0.20833333  0.06611495  1.0
  Ni  Ni31  1  0.41666667  0.54166667  0.06611495  1.0
  Ni  Ni32  1  0.41666667  0.87500000  0.06611495  1.0
  Ni  Ni33  1  0.75000000  0.20833333  0.06611495  1.0
  Ni  Ni34  1  0.75000000  0.54166667  0.06611495  1.0
  Ni  Ni35  1  0.75000000  0.87500000  0.06611495  1.0
  Ni  Ni36  1  0.20799078  0.10399539  0.08734794  1.0
  Ni  Ni37  1  0.20799078  0.43732872  0.08734794  1.0
  Ni  Ni38  1  0.20799078  0.77066205  0.08734794  1.0
  Ni  Ni39  1  0.54132411  0.10399539  0.08734794  1.0
  Ni  Ni40  1  0.54132411  0.43732872  0.08734794  1.0
  Ni  Ni41  1  0.54132411  0.77066205  0.08734794  1.0
  Ni  Ni42  1  0.87465744  0.10399539  0.08734794  1.0
  Ni  Ni43  1  0.87465744  0.43732872  0.08734794  1.0
  Ni  Ni44  1  0.87465744  0.77066205  0.08734794  1.0
  Ni  Ni45  1  0.20799078  0.27066205  0.03179238  1.0
  Ni  Ni46  1  0.20799078  0.60399539  0.03179238  1.0
  Ni  Ni47  1  0.20799078  0.93732872  0.03179238  1.0
  Ni  Ni48  1  0.54132411  0.27066205  0.03179238  1.0
  Ni  Ni49  1  0.54132411  0.60399539  0.03179238  1.0
  Ni  Ni50  1  0.54132411  0.93732872  0.03179238  1.0
  Ni  Ni51  1  0.87465744  0.27066205  0.03179238  1.0
  Ni  Ni52  1  0.87465744  0.60399539  0.03179238  1.0
  Ni  Ni53  1  0.87465744  0.93732872  0.03179238  1.0
  Ni  Ni54  1  0.20799078  0.10399539  0.03133564  1.0
  Ni  Ni55  1  0.20799078  0.43732872  0.03133564  1.0
  Ni  Ni56  1  0.20799078  0.77066205  0.03133564  1.0
  Ni  Ni57  1  0.54132411  0.10399539  0.03133564  1.0
  Ni  Ni58  1  0.54132411  0.43732872  0.03133564  1.0
  Ni  Ni59  1  0.54132411  0.77066205  0.03133564  1.0
  Ni  Ni60  1  0.87465744  0.10399539  0.03133564  1.0
  Ni  Ni61  1  0.87465744  0.43732872  0.03133564  1.0
  Ni  Ni62  1  0.87465744  0.77066205  0.03133564  1.0
  Ni  Ni63  1  0.20799078  0.27066206  0.08689119  1.0
  Ni  Ni64  1  0.20799078  0.60399539  0.08689119  1.0
  Ni  Ni65  1  0.20799078  0.93732872  0.08689119  1.0
  Ni  Ni66  1  0.54132411  0.27066206  0.08689119  1.0
  Ni  Ni67  1  0.54132411  0.60399539  0.08689119  1.0
  Ni  Ni68  1  0.54132411  0.93732872  0.08689119  1.0
  Ni  Ni69  1  0.87465744  0.27066206  0.08689119  1.0
  Ni  Ni70  1  0.87465744  0.60399539  0.08689119  1.0
  Ni  Ni71  1  0.87465744  0.93732872  0.08689119  1.0
  Ni  Ni72  1  0.20799078  0.02134717  0.05888505  1.0
  Ni  Ni73  1  0.20799078  0.35468050  0.05888505  1.0
  Ni  Ni74  1  0.20799078  0.68801383  0.05888505  1.0
  Ni  Ni75  1  0.54132411  0.02134717  0.05888505  1.0
  Ni  Ni76  1  0.54132411  0.35468050  0.05888505  1.0
  Ni  Ni77  1  0.54132411  0.68801383  0.05888505  1.0
  Ni  Ni78  1  0.87465744  0.02134717  0.05888505  1.0
  Ni  Ni79  1  0.87465744  0.35468050  0.05888505  1.0
  Ni  Ni80  1  0.87465744  0.68801383  0.05888505  1.0
  Ni  Ni81  1  0.20799078  0.18801383  0.00332949  1.0
  Ni  Ni82  1  0.20799078  0.52134717  0.00332949  1.0
  Ni  Ni83  1  0.20799078  0.85468050  0.00332949  1.0
  Ni  Ni84  1  0.54132411  0.18801383  0.00332949  1.0
  Ni  Ni85  1  0.54132411  0.52134717  0.00332949  1.0
  Ni  Ni86  1  0.54132411  0.85468050  0.00332949  1.0
  Ni  Ni87  1  0.87465744  0.18801383  0.00332949  1.0
  Ni  Ni88  1  0.87465744  0.52134717  0.00332949  1.0
  Ni  Ni89  1  0.87465744  0.85468050  0.00332949  1.0
  Ni  Ni90  1  0.04269433  0.10399539  0.03133564  1.0
  Ni  Ni91  1  0.04269433  0.43732872  0.03133564  1.0
  Ni  Ni92  1  0.04269433  0.77066205  0.03133564  1.0
  Ni  Ni93  1  0.37602767  0.10399539  0.03133564  1.0
  Ni  Ni94  1  0.37602767  0.43732872  0.03133564  1.0
  Ni  Ni95  1  0.37602767  0.77066205  0.03133564  1.0
  Ni  Ni96  1  0.70936100  0.10399539  0.03133564  1.0
  Ni  Ni97  1  0.70936100  0.43732872  0.03133564  1.0
  Ni  Ni98  1  0.70936100  0.77066205  0.03133564  1.0
  Ni  Ni99  1  0.04269433  0.27066205  0.08689119  1.0
  Ni  Ni100  1  0.04269433  0.60399539  0.08689119  1.0
  Ni  Ni101  1  0.04269433  0.93732872  0.08689119  1.0
  Ni  Ni102  1  0.37602767  0.27066205  0.08689119  1.0
  Ni  Ni103  1  0.37602767  0.60399539  0.08689119  1.0
  Ni  Ni104  1  0.37602767  0.93732872  0.08689119  1.0
  Ni  Ni105  1  0.70936100  0.27066205  0.08689119  1.0
  Ni  Ni106  1  0.70936100  0.60399539  0.08689119  1.0
  Ni  Ni107  1  0.70936100  0.93732872  0.08689119  1.0
  Zr  Zr108  1  0.00000000  0.00000000  0.21889273  1.0
  Zr  Zr109  1  0.00000000  0.33333333  0.21889273  1.0
  Zr  Zr110  1  0.00000000  0.66666667  0.21889273  1.0
  Zr  Zr111  1  0.33333333  0.00000000  0.21889273  1.0
  Zr  Zr112  1  0.33333333  0.33333333  0.21889273  1.0
  Zr  Zr113  1  0.33333333  0.66666667  0.21889273  1.0
  Zr  Zr114  1  0.66666667  0.00000000  0.21889273  1.0
  Zr  Zr115  1  0.66666667  0.33333333  0.21889273  1.0
  Zr  Zr116  1  0.66666667  0.66666667  0.21889273  1.0
  Zr  Zr117  1  0.00000000  0.16666667  0.16333718  1.0
  Zr  Zr118  1  0.00000000  0.50000000  0.16333718  1.0
  Zr  Zr119  1  0.00000000  0.83333333  0.16333718  1.0
  Zr  Zr120  1  0.33333333  0.16666667  0.16333718  1.0
  Zr  Zr121  1  0.33333333  0.50000000  0.16333718  1.0
  Zr  Zr122  1  0.33333333  0.83333333  0.16333718  1.0
  Zr  Zr123  1  0.66666667  0.16666667  0.16333718  1.0
  Zr  Zr124  1  0.66666667  0.50000000  0.16333718  1.0
  Zr  Zr125  1  0.66666667  0.83333333  0.16333718  1.0
  Ni  Ni126  1  0.08333333  0.04166667  0.12167051  1.0
  Ni  Ni127  1  0.08333333  0.37500000  0.12167051  1.0
  Ni  Ni128  1  0.08333333  0.70833333  0.12167051  1.0
  Ni  Ni129  1  0.41666667  0.04166667  0.12167051  1.0
  Ni  Ni130  1  0.41666667  0.37500000  0.12167051  1.0
  Ni  Ni131  1  0.41666667  0.70833333  0.12167051  1.0
  Ni  Ni132  1  0.75000000  0.04166667  0.12167051  1.0
  Ni  Ni133  1  0.75000000  0.37500000  0.12167051  1.0
  Ni  Ni134  1  0.75000000  0.70833333  0.12167051  1.0
  Ni  Ni135  1  0.08333333  0.20833333  0.17722606  1.0
  Ni  Ni136  1  0.08333333  0.54166667  0.17722606  1.0
  Ni  Ni137  1  0.08333333  0.87500000  0.17722606  1.0
  Ni  Ni138  1  0.41666667  0.20833333  0.17722606  1.0
  Ni  Ni139  1  0.41666667  0.54166667  0.17722607  1.0
  Ni  Ni140  1  0.41666667  0.87500000  0.17722606  1.0
  Ni  Ni141  1  0.75000000  0.20833333  0.17722606  1.0
  Ni  Ni142  1  0.75000000  0.54166667  0.17722606  1.0
  Ni  Ni143  1  0.75000000  0.87500000  0.17722606  1.0
  Ni  Ni144  1  0.20799078  0.10399539  0.19845905  1.0
  Ni  Ni145  1  0.20799078  0.43732872  0.19845905  1.0
  Ni  Ni146  1  0.20799078  0.77066205  0.19845905  1.0
  Ni  Ni147  1  0.54132411  0.10399539  0.19845905  1.0
  Ni  Ni148  1  0.54132411  0.43732872  0.19845905  1.0
  Ni  Ni149  1  0.54132411  0.77066205  0.19845905  1.0
  Ni  Ni150  1  0.87465744  0.10399539  0.19845905  1.0
  Ni  Ni151  1  0.87465744  0.43732872  0.19845905  1.0
  Ni  Ni152  1  0.87465744  0.77066205  0.19845905  1.0
  Ni  Ni153  1  0.20799078  0.27066205  0.14290349  1.0
  Ni  Ni154  1  0.20799078  0.60399539  0.14290349  1.0
  Ni  Ni155  1  0.20799078  0.93732872  0.14290349  1.0
  Ni  Ni156  1  0.54132411  0.27066205  0.14290349  1.0
  Ni  Ni157  1  0.54132411  0.60399539  0.14290349  1.0
  Ni  Ni158  1  0.54132411  0.93732872  0.14290349  1.0
  Ni  Ni159  1  0.87465744  0.27066205  0.14290349  1.0
  Ni  Ni160  1  0.87465744  0.60399539  0.14290349  1.0
  Ni  Ni161  1  0.87465744  0.93732872  0.14290349  1.0
  Ni  Ni162  1  0.20799078  0.10399539  0.14244675  1.0
  Ni  Ni163  1  0.20799078  0.43732872  0.14244675  1.0
  Ni  Ni164  1  0.20799078  0.77066205  0.14244675  1.0
  Ni  Ni165  1  0.54132411  0.10399539  0.14244675  1.0
  Ni  Ni166  1  0.54132411  0.43732872  0.14244675  1.0
  Ni  Ni167  1  0.54132411  0.77066205  0.14244675  1.0
  Ni  Ni168  1  0.87465744  0.10399539  0.14244675  1.0
  Ni  Ni169  1  0.87465744  0.43732872  0.14244675  1.0
  Ni  Ni170  1  0.87465744  0.77066205  0.14244675  1.0
  Ni  Ni171  1  0.20799078  0.27066206  0.19800231  1.0
  Ni  Ni172  1  0.20799078  0.60399539  0.19800231  1.0
  Ni  Ni173  1  0.20799078  0.93732872  0.19800231  1.0
  Ni  Ni174  1  0.54132411  0.27066206  0.19800231  1.0
  Ni  Ni175  1  0.54132411  0.60399539  0.19800231  1.0
  Ni  Ni176  1  0.54132411  0.93732872  0.19800231  1.0
  Ni  Ni177  1  0.87465744  0.27066206  0.19800231  1.0
  Ni  Ni178  1  0.87465744  0.60399539  0.19800231  1.0
  Ni  Ni179  1  0.87465744  0.93732872  0.19800231  1.0
  Ni  Ni180  1  0.20799078  0.02134717  0.16999616  1.0
  Ni  Ni181  1  0.20799078  0.35468050  0.16999616  1.0
  Ni  Ni182  1  0.20799078  0.68801383  0.16999616  1.0
  Ni  Ni183  1  0.54132411  0.02134717  0.16999616  1.0
  Ni  Ni184  1  0.54132411  0.35468050  0.16999616  1.0
  Ni  Ni185  1  0.54132411  0.68801383  0.16999616  1.0
  Ni  Ni186  1  0.87465744  0.02134717  0.16999616  1.0
  Ni  Ni187  1  0.87465744  0.35468050  0.16999616  1.0
  Ni  Ni188  1  0.87465744  0.68801383  0.16999616  1.0
  Ni  Ni189  1  0.20799078  0.18801383  0.11444060  1.0
  Ni  Ni190  1  0.20799078  0.52134717  0.11444060  1.0
  Ni  Ni191  1  0.20799078  0.85468050  0.11444060  1.0
  Ni  Ni192  1  0.54132411  0.18801383  0.11444060  1.0
  Ni  Ni193  1  0.54132411  0.52134717  0.11444060  1.0
  Ni  Ni194  1  0.54132411  0.85468050  0.11444060  1.0
  Ni  Ni195  1  0.87465744  0.18801383  0.11444060  1.0
  Ni  Ni196  1  0.87465744  0.52134717  0.11444060  1.0
  Ni  Ni197  1  0.87465744  0.85468050  0.11444060  1.0
  Ni  Ni198  1  0.04269433  0.10399539  0.14244675  1.0
  Ni  Ni199  1  0.04269433  0.43732872  0.14244675  1.0
  Ni  Ni200  1  0.04269433  0.77066205  0.14244675  1.0
  Ni  Ni201  1  0.37602767  0.10399539  0.14244675  1.0
  Ni  Ni202  1  0.37602767  0.43732872  0.14244675  1.0
  Ni  Ni203  1  0.37602767  0.77066205  0.14244675  1.0
  Ni  Ni204  1  0.70936100  0.10399539  0.14244675  1.0
  Ni  Ni205  1  0.70936100  0.43732872  0.14244675  1.0
  Ni  Ni206  1  0.70936100  0.77066205  0.14244675  1.0
  Ni  Ni207  1  0.04269433  0.27066205  0.19800231  1.0
  Ni  Ni208  1  0.04269433  0.60399539  0.19800231  1.0
  Ni  Ni209  1  0.04269433  0.93732872  0.19800231  1.0
  Ni  Ni210  1  0.37602767  0.27066205  0.19800231  1.0
  Ni  Ni211  1  0.37602767  0.60399539  0.19800231  1.0
  Ni  Ni212  1  0.37602767  0.93732872  0.19800231  1.0
  Ni  Ni213  1  0.70936100  0.27066205  0.19800231  1.0
  Ni  Ni214  1  0.70936100  0.60399539  0.19800231  1.0
  Ni  Ni215  1  0.70936100  0.93732872  0.19800231  1.0
  Zr  Zr216  1  0.00000000  0.00000000  0.33000384  1.0
  Zr  Zr217  1  0.00000000  0.33333333  0.33000384  1.0
  Zr  Zr218  1  0.00000000  0.66666667  0.33000384  1.0
  Zr  Zr219  1  0.33333333  0.00000000  0.33000384  1.0
  Zr  Zr220  1  0.33333333  0.33333333  0.33000384  1.0
  Zr  Zr221  1  0.33333333  0.66666667  0.33000384  1.0
  Zr  Zr222  1  0.66666667  0.00000000  0.33000384  1.0
  Zr  Zr223  1  0.66666667  0.33333333  0.33000384  1.0
  Zr  Zr224  1  0.66666667  0.66666667  0.33000384  1.0
  Zr  Zr225  1  0.00000000  0.16666667  0.27444829  1.0
  Zr  Zr226  1  0.00000000  0.50000000  0.27444829  1.0
  Zr  Zr227  1  0.00000000  0.83333333  0.27444829  1.0
  Zr  Zr228  1  0.33333333  0.16666667  0.27444829  1.0
  Zr  Zr229  1  0.33333333  0.50000000  0.27444829  1.0
  Zr  Zr230  1  0.33333333  0.83333333  0.27444829  1.0
  Zr  Zr231  1  0.66666667  0.16666667  0.27444829  1.0
  Zr  Zr232  1  0.66666667  0.50000000  0.27444829  1.0
  Zr  Zr233  1  0.66666667  0.83333333  0.27444829  1.0
  Ni  Ni234  1  0.08333333  0.04166667  0.23278162  1.0
  Ni  Ni235  1  0.08333333  0.37500000  0.23278162  1.0
  Ni  Ni236  1  0.08333333  0.70833333  0.23278162  1.0
  Ni  Ni237  1  0.41666667  0.04166667  0.23278162  1.0
  Ni  Ni238  1  0.41666667  0.37500000  0.23278162  1.0
  Ni  Ni239  1  0.41666667  0.70833333  0.23278162  1.0
  Ni  Ni240  1  0.75000000  0.04166667  0.23278162  1.0
  Ni  Ni241  1  0.75000000  0.37500000  0.23278162  1.0
  Ni  Ni242  1  0.75000000  0.70833333  0.23278162  1.0
  Ni  Ni243  1  0.08333333  0.20833333  0.28833718  1.0
  Ni  Ni244  1  0.08333333  0.54166667  0.28833718  1.0
  Ni  Ni245  1  0.08333333  0.87500000  0.28833718  1.0
  Ni  Ni246  1  0.41666667  0.20833333  0.28833718  1.0
  Ni  Ni247  1  0.41666667  0.54166667  0.28833718  1.0
  Ni  Ni248  1  0.41666667  0.87500000  0.28833718  1.0
  Ni  Ni249  1  0.75000000  0.20833333  0.28833718  1.0
  Ni  Ni250  1  0.75000000  0.54166667  0.28833718  1.0
  Ni  Ni251  1  0.75000000  0.87500000  0.28833718  1.0
  Ni  Ni252  1  0.20799078  0.10399539  0.30957016  1.0
  Ni  Ni253  1  0.20799078  0.43732872  0.30957016  1.0
  Ni  Ni254  1  0.20799078  0.77066205  0.30957016  1.0
  Ni  Ni255  1  0.54132411  0.10399539  0.30957016  1.0
  Ni  Ni256  1  0.54132411  0.43732872  0.30957016  1.0
  Ni  Ni257  1  0.54132411  0.77066205  0.30957016  1.0
  Ni  Ni258  1  0.87465744  0.10399539  0.30957016  1.0
  Ni  Ni259  1  0.87465744  0.43732872  0.30957016  1.0
  Ni  Ni260  1  0.87465744  0.77066205  0.30957016  1.0
  Ni  Ni261  1  0.20799078  0.27066205  0.25401460  1.0
  Ni  Ni262  1  0.20799078  0.60399539  0.25401460  1.0
  Ni  Ni263  1  0.20799078  0.93732872  0.25401460  1.0
  Ni  Ni264  1  0.54132411  0.27066205  0.25401460  1.0
  Ni  Ni265  1  0.54132411  0.60399539  0.25401460  1.0
  Ni  Ni266  1  0.54132411  0.93732872  0.25401460  1.0
  Ni  Ni267  1  0.87465744  0.27066205  0.25401460  1.0
  Ni  Ni268  1  0.87465744  0.60399539  0.25401460  1.0
  Ni  Ni269  1  0.87465744  0.93732872  0.25401460  1.0
  Ni  Ni270  1  0.20799078  0.10399539  0.25355786  1.0
  Ni  Ni271  1  0.20799078  0.43732872  0.25355786  1.0
  Ni  Ni272  1  0.20799078  0.77066205  0.25355786  1.0
  Ni  Ni273  1  0.54132411  0.10399539  0.25355786  1.0
  Ni  Ni274  1  0.54132411  0.43732872  0.25355786  1.0
  Ni  Ni275  1  0.54132411  0.77066205  0.25355786  1.0
  Ni  Ni276  1  0.87465744  0.10399539  0.25355786  1.0
  Ni  Ni277  1  0.87465744  0.43732872  0.25355786  1.0
  Ni  Ni278  1  0.87465744  0.77066205  0.25355786  1.0
  Ni  Ni279  1  0.20799078  0.27066206  0.30911342  1.0
  Ni  Ni280  1  0.20799078  0.60399539  0.30911342  1.0
  Ni  Ni281  1  0.20799078  0.93732872  0.30911342  1.0
  Ni  Ni282  1  0.54132411  0.27066206  0.30911342  1.0
  Ni  Ni283  1  0.54132411  0.60399539  0.30911342  1.0
  Ni  Ni284  1  0.54132411  0.93732872  0.30911342  1.0
  Ni  Ni285  1  0.87465744  0.27066206  0.30911342  1.0
  Ni  Ni286  1  0.87465744  0.60399539  0.30911342  1.0
  Ni  Ni287  1  0.87465744  0.93732872  0.30911342  1.0
  Ni  Ni288  1  0.20799078  0.02134717  0.28110727  1.0
  Ni  Ni289  1  0.20799078  0.35468050  0.28110727  1.0
  Ni  Ni290  1  0.20799078  0.68801383  0.28110727  1.0
  Ni  Ni291  1  0.54132411  0.02134717  0.28110727  1.0
  Ni  Ni292  1  0.54132411  0.35468050  0.28110727  1.0
  Ni  Ni293  1  0.54132411  0.68801383  0.28110727  1.0
  Ni  Ni294  1  0.87465744  0.02134717  0.28110727  1.0
  Ni  Ni295  1  0.87465744  0.35468050  0.28110727  1.0
  Ni  Ni296  1  0.87465744  0.68801383  0.28110727  1.0
  Ni  Ni297  1  0.20799078  0.18801383  0.22555171  1.0
  Ni  Ni298  1  0.20799078  0.52134717  0.22555171  1.0
  Ni  Ni299  1  0.20799078  0.85468050  0.22555171  1.0
  Ni  Ni300  1  0.54132411  0.18801383  0.22555171  1.0
  Ni  Ni301  1  0.54132411  0.52134717  0.22555171  1.0
  Ni  Ni302  1  0.54132411  0.85468050  0.22555171  1.0
  Ni  Ni303  1  0.87465744  0.18801383  0.22555171  1.0
  Ni  Ni304  1  0.87465744  0.52134717  0.22555171  1.0
  Ni  Ni305  1  0.87465744  0.85468050  0.22555171  1.0
  Ni  Ni306  1  0.04269433  0.10399539  0.25355786  1.0
  Ni  Ni307  1  0.04269433  0.43732872  0.25355786  1.0
  Ni  Ni308  1  0.04269433  0.77066205  0.25355786  1.0
  Ni  Ni309  1  0.37602767  0.10399539  0.25355786  1.0
  Ni  Ni310  1  0.37602767  0.43732872  0.25355786  1.0
  Ni  Ni311  1  0.37602767  0.77066205  0.25355786  1.0
  Ni  Ni312  1  0.70936100  0.10399539  0.25355786  1.0
  Ni  Ni313  1  0.70936100  0.43732872  0.25355786  1.0
  Ni  Ni314  1  0.70936100  0.77066205  0.25355786  1.0
  Ni  Ni315  1  0.04269433  0.27066205  0.30911342  1.0
  Ni  Ni316  1  0.04269433  0.60399539  0.30911342  1.0
  Ni  Ni317  1  0.04269433  0.93732872  0.30911342  1.0
  Ni  Ni318  1  0.37602767  0.27066205  0.30911342  1.0
  Ni  Ni319  1  0.37602767  0.60399539  0.30911342  1.0
  Ni  Ni320  1  0.37602767  0.93732872  0.30911342  1.0
  Ni  Ni321  1  0.70936100  0.27066205  0.30911342  1.0
  Ni  Ni322  1  0.70936100  0.60399539  0.30911342  1.0
  Ni  Ni323  1  0.70936100  0.93732872  0.30911342  1.0
  Zr  Zr324  1  0.00000000  0.00000000  0.44111495  1.0
  Zr  Zr325  1  0.00000000  0.33333333  0.44111495  1.0
  Zr  Zr326  1  0.00000000  0.66666667  0.44111495  1.0
  Zr  Zr327  1  0.33333333  0.00000000  0.44111495  1.0
  Zr  Zr328  1  0.33333333  0.33333333  0.44111495  1.0
  Zr  Zr329  1  0.33333333  0.66666667  0.44111495  1.0
  Zr  Zr330  1  0.66666667  0.00000000  0.44111495  1.0
  Zr  Zr331  1  0.66666667  0.33333333  0.44111495  1.0
  Zr  Zr332  1  0.66666667  0.66666667  0.44111495  1.0
  Zr  Zr333  1  0.00000000  0.16666667  0.38555940  1.0
  Zr  Zr334  1  0.00000000  0.50000000  0.38555940  1.0
  Zr  Zr335  1  0.00000000  0.83333333  0.38555940  1.0
  Zr  Zr336  1  0.33333333  0.16666667  0.38555940  1.0
  Zr  Zr337  1  0.33333333  0.50000000  0.38555940  1.0
  Zr  Zr338  1  0.33333333  0.83333333  0.38555940  1.0
  Zr  Zr339  1  0.66666667  0.16666667  0.38555940  1.0
  Zr  Zr340  1  0.66666667  0.50000000  0.38555940  1.0
  Zr  Zr341  1  0.66666667  0.83333333  0.38555940  1.0
  Ni  Ni342  1  0.08333333  0.04166667  0.34389273  1.0
  Ni  Ni343  1  0.08333333  0.37500000  0.34389273  1.0
  Ni  Ni344  1  0.08333333  0.70833333  0.34389273  1.0
  Ni  Ni345  1  0.41666667  0.04166667  0.34389273  1.0
  Ni  Ni346  1  0.41666667  0.37500000  0.34389273  1.0
  Ni  Ni347  1  0.41666667  0.70833333  0.34389273  1.0
  Ni  Ni348  1  0.75000000  0.04166667  0.34389273  1.0
  Ni  Ni349  1  0.75000000  0.37500000  0.34389273  1.0
  Ni  Ni350  1  0.75000000  0.70833333  0.34389273  1.0
  Ni  Ni351  1  0.08333333  0.20833333  0.39944829  1.0
  Ni  Ni352  1  0.08333333  0.54166667  0.39944829  1.0
  Ni  Ni353  1  0.08333333  0.87500000  0.39944829  1.0
  Ni  Ni354  1  0.41666667  0.20833333  0.39944829  1.0
  Ni  Ni355  1  0.41666667  0.54166667  0.39944829  1.0
  Ni  Ni356  1  0.41666667  0.87500000  0.39944829  1.0
  Ni  Ni357  1  0.75000000  0.20833333  0.39944829  1.0
  Ni  Ni358  1  0.75000000  0.54166667  0.39944829  1.0
  Ni  Ni359  1  0.75000000  0.87500000  0.39944829  1.0
  Ni  Ni360  1  0.20799078  0.10399539  0.42068127  1.0
  Ni  Ni361  1  0.20799078  0.43732872  0.42068127  1.0
  Ni  Ni362  1  0.20799078  0.77066205  0.42068127  1.0
  Ni  Ni363  1  0.54132411  0.10399539  0.42068127  1.0
  Ni  Ni364  1  0.54132411  0.43732872  0.42068127  1.0
  Ni  Ni365  1  0.54132411  0.77066205  0.42068127  1.0
  Ni  Ni366  1  0.87465744  0.10399539  0.42068127  1.0
  Ni  Ni367  1  0.87465744  0.43732872  0.42068127  1.0
  Ni  Ni368  1  0.87465744  0.77066205  0.42068127  1.0
  Ni  Ni369  1  0.20799078  0.27066205  0.36512571  1.0
  Ni  Ni370  1  0.20799078  0.60399539  0.36512571  1.0
  Ni  Ni371  1  0.20799078  0.93732872  0.36512571  1.0
  Ni  Ni372  1  0.54132411  0.27066205  0.36512571  1.0
  Ni  Ni373  1  0.54132411  0.60399539  0.36512571  1.0
  Ni  Ni374  1  0.54132411  0.93732872  0.36512571  1.0
  Ni  Ni375  1  0.87465744  0.27066205  0.36512571  1.0
  Ni  Ni376  1  0.87465744  0.60399539  0.36512571  1.0
  Ni  Ni377  1  0.87465744  0.93732872  0.36512571  1.0
  Ni  Ni378  1  0.20799078  0.10399539  0.36466897  1.0
  Ni  Ni379  1  0.20799078  0.43732872  0.36466897  1.0
  Ni  Ni380  1  0.20799078  0.77066205  0.36466897  1.0
  Ni  Ni381  1  0.54132411  0.10399539  0.36466897  1.0
  Ni  Ni382  1  0.54132411  0.43732872  0.36466897  1.0
  Ni  Ni383  1  0.54132411  0.77066205  0.36466897  1.0
  Ni  Ni384  1  0.87465744  0.10399539  0.36466897  1.0
  Ni  Ni385  1  0.87465744  0.43732872  0.36466897  1.0
  Ni  Ni386  1  0.87465744  0.77066205  0.36466897  1.0
  Ni  Ni387  1  0.20799078  0.27066206  0.42022453  1.0
  Ni  Ni388  1  0.20799078  0.60399539  0.42022453  1.0
  Ni  Ni389  1  0.20799078  0.93732872  0.42022453  1.0
  Ni  Ni390  1  0.54132411  0.27066206  0.42022453  1.0
  Ni  Ni391  1  0.54132411  0.60399539  0.42022453  1.0
  Ni  Ni392  1  0.54132411  0.93732872  0.42022453  1.0
  Ni  Ni393  1  0.87465744  0.27066206  0.42022453  1.0
  Ni  Ni394  1  0.87465744  0.60399539  0.42022453  1.0
  Ni  Ni395  1  0.87465744  0.93732872  0.42022453  1.0
  Ni  Ni396  1  0.20799078  0.02134717  0.39221838  1.0
  Ni  Ni397  1  0.20799078  0.35468050  0.39221838  1.0
  Ni  Ni398  1  0.20799078  0.68801383  0.39221838  1.0
  Ni  Ni399  1  0.54132411  0.02134717  0.39221838  1.0
  Ni  Ni400  1  0.54132411  0.35468050  0.39221838  1.0
  Ni  Ni401  1  0.54132411  0.68801383  0.39221838  1.0
  Ni  Ni402  1  0.87465744  0.02134717  0.39221838  1.0
  Ni  Ni403  1  0.87465744  0.35468050  0.39221838  1.0
  Ni  Ni404  1  0.87465744  0.68801383  0.39221838  1.0
  Ni  Ni405  1  0.20799078  0.18801383  0.33666282  1.0
  Ni  Ni406  1  0.20799078  0.52134717  0.33666282  1.0
  Ni  Ni407  1  0.20799078  0.85468050  0.33666282  1.0
  Ni  Ni408  1  0.54132411  0.18801383  0.33666282  1.0
  Ni  Ni409  1  0.54132411  0.52134717  0.33666282  1.0
  Ni  Ni410  1  0.54132411  0.85468050  0.33666282  1.0
  Ni  Ni411  1  0.87465744  0.18801383  0.33666282  1.0
  Ni  Ni412  1  0.87465744  0.52134717  0.33666282  1.0
  Ni  Ni413  1  0.87465744  0.85468050  0.33666282  1.0
  Ni  Ni414  1  0.04269433  0.10399539  0.36466897  1.0
  Ni  Ni415  1  0.04269433  0.43732872  0.36466897  1.0
  Ni  Ni416  1  0.04269433  0.77066205  0.36466897  1.0
  Ni  Ni417  1  0.37602767  0.10399539  0.36466897  1.0
  Ni  Ni418  1  0.37602767  0.43732872  0.36466897  1.0
  Ni  Ni419  1  0.37602767  0.77066205  0.36466897  1.0
  Ni  Ni420  1  0.70936100  0.10399539  0.36466897  1.0
  Ni  Ni421  1  0.70936100  0.43732872  0.36466897  1.0
  Ni  Ni422  1  0.70936100  0.77066205  0.36466897  1.0
  Ni  Ni423  1  0.04269433  0.27066205  0.42022453  1.0
  Ni  Ni424  1  0.04269433  0.60399539  0.42022453  1.0
  Ni  Ni425  1  0.04269433  0.93732872  0.42022453  1.0
  Ni  Ni426  1  0.37602767  0.27066205  0.42022453  1.0
  Ni  Ni427  1  0.37602767  0.60399539  0.42022453  1.0
  Ni  Ni428  1  0.37602767  0.93732872  0.42022453  1.0
  Ni  Ni429  1  0.70936100  0.27066205  0.42022453  1.0
  Ni  Ni430  1  0.70936100  0.60399539  0.42022453  1.0
  Ni  Ni431  1  0.70936100  0.93732872  0.42022453  1.0
