# generated using pymatgen
data_ZrNi2
_symmetry_space_group_name_H-M   'P 1'
_cell_length_a   14.78197110
_cell_length_b   14.78197110
_cell_length_c   34.49126590
_cell_angle_alpha   120.00000000
_cell_angle_beta   120.00000000
_cell_angle_gamma   60.00000000
_symmetry_Int_Tables_number   1
_chemical_formula_structural   ZrNi2
_chemical_formula_sum   'Zr54 Ni108'
_cell_volume   5329.16091506
_cell_formula_units_Z   54
loop_
 _symmetry_equiv_pos_site_id
 _symmetry_equiv_pos_as_xyz
  1  'x, y, z'
loop_
 _atom_site_type_symbol
 _atom_site_label
 _atom_site_symmetry_multiplicity
 _atom_site_fract_x
 _atom_site_fract_y
 _atom_site_fract_z
 _atom_site_occupancy
  Zr  Zr0  1  0.00000000  0.00000000  0.11607143  1.0
  Zr  Zr1  1  0.00000000  0.33333333  0.11607143  1.0
  Zr  Zr2  1  0.00000000  0.66666667  0.11607143  1.0
  Zr  Zr3  1  0.33333333  0.00000000  0.11607143  1.0
  Zr  Zr4  1  0.33333333  0.33333333  0.11607143  1.0
  Zr  Zr5  1  0.33333333  0.66666667  0.11607143  1.0
  Zr  Zr6  1  0.66666667  0.00000000  0.11607143  1.0
  Zr  Zr7  1  0.66666667  0.33333333  0.11607143  1.0
  Zr  Zr8  1  0.66666667  0.66666667  0.11607143  1.0
  Zr  Zr9  1  0.08333333  0.08333333  0.08035714  1.0
  Zr  Zr10  1  0.08333333  0.41666667  0.08035714  1.0
  Zr  Zr11  1  0.08333333  0.75000000  0.08035714  1.0
  Zr  Zr12  1  0.41666667  0.08333333  0.08035714  1.0
  Zr  Zr13  1  0.41666667  0.41666667  0.08035714  1.0
  Zr  Zr14  1  0.41666667  0.75000000  0.08035714  1.0
  Zr  Zr15  1  0.75000000  0.08333333  0.08035714  1.0
  Zr  Zr16  1  0.75000000  0.41666667  0.08035714  1.0
  Zr  Zr17  1  0.75000000  0.75000000  0.08035714  1.0
  Ni  Ni18  1  0.20833333  0.20833333  0.09821429  1.0
  Ni  Ni19  1  0.20833333  0.54166667  0.09821429  1.0
  Ni  Ni20  1  0.20833333  0.87500000  0.09821429  1.0
  Ni  Ni21  1  0.54166667  0.20833333  0.09821429  1.0
  Ni  Ni22  1  0.54166667  0.54166667  0.09821429  1.0
  Ni  Ni23  1  0.54166667  0.87500000  0.09821429  1.0
  Ni  Ni24  1  0.87500000  0.20833333  0.09821429  1.0
  Ni  Ni25  1  0.87500000  0.54166667  0.09821429  1.0
  Ni  Ni26  1  0.87500000  0.87500000  0.09821429  1.0
  Ni  Ni27  1  0.20833333  0.20833333  0.02678571  1.0
  Ni  Ni28  1  0.20833333  0.54166667  0.02678571  1.0
  Ni  Ni29  1  0.20833333  0.87500000  0.02678571  1.0
  Ni  Ni30  1  0.54166667  0.20833333  0.02678571  1.0
  Ni  Ni31  1  0.54166667  0.54166667  0.02678571  1.0
  Ni  Ni32  1  0.54166667  0.87500000  0.02678571  1.0
  Ni  Ni33  1  0.87500000  0.20833333  0.02678571  1.0
  Ni  Ni34  1  0.87500000  0.54166667  0.02678571  1.0
  Ni  Ni35  1  0.87500000  0.87500000  0.02678571  1.0
  Ni  Ni36  1  0.04166667  0.20833333  0.02678571  1.0
  Ni  Ni37  1  0.04166667  0.54166667  0.02678571  1.0
  Ni  Ni38  1  0.04166667  0.87500000  0.02678571  1.0
  Ni  Ni39  1  0.37500000  0.20833333  0.02678571  1.0
  Ni  Ni40  1  0.37500000  0.54166667  0.02678571  1.0
  Ni  Ni41  1  0.37500000  0.87500000  0.02678571  1.0
  Ni  Ni42  1  0.70833333  0.20833333  0.02678571  1.0
  Ni  Ni43  1  0.70833333  0.54166667  0.02678571  1.0
  Ni  Ni44  1  0.70833333  0.87500000  0.02678571  1.0
  Ni  Ni45  1  0.20833333  0.04166667  0.02678571  1.0
  Ni  Ni46  1  0.20833333  0.37500000  0.02678571  1.0
  Ni  Ni47  1  0.20833333  0.70833333  0.02678571  1.0
  Ni  Ni48  1  0.54166667  0.04166667  0.02678571  1.0
  Ni  Ni49  1  0.54166667  0.37500000  0.02678571  1.0
  Ni  Ni50  1  0.54166667  0.70833333  0.02678571  1.0
  Ni  Ni51  1  0.87500000  0.04166667  0.02678571  1.0
  Ni  Ni52  1  0.87500000  0.37500000  0.02678571  1.0
  Ni  Ni53  1  0.87500000  0.70833333  0.02678571  1.0
  Zr  Zr54  1  0.00000000  0.00000000  0.25892857  1.0
  Zr  Zr55  1  0.00000000  0.33333333  0.25892857  1.0
  Zr  Zr56  1  0.00000000  0.66666667  0.25892857  1.0
  Zr  Zr57  1  0.33333333  0.00000000  0.25892857  1.0
  Zr  Zr58  1  0.33333333  0.33333333  0.25892857  1.0
  Zr  Zr59  1  0.33333333  0.66666667  0.25892857  1.0
  Zr  Zr60  1  0.66666667  0.00000000  0.25892857  1.0
  Zr  Zr61  1  0.66666667  0.33333333  0.25892857  1.0
  Zr  Zr62  1  0.66666667  0.66666667  0.25892857  1.0
  Zr  Zr63  1  0.08333333  0.08333333  0.22321429  1.0
  Zr  Zr64  1  0.08333333  0.41666667  0.22321429  1.0
  Zr  Zr65  1  0.08333333  0.75000000  0.22321429  1.0
  Zr  Zr66  1  0.41666667  0.08333333  0.22321429  1.0
  Zr  Zr67  1  0.41666667  0.41666667  0.22321429  1.0
  Zr  Zr68  1  0.41666667  0.75000000  0.22321429  1.0
  Zr  Zr69  1  0.75000000  0.08333333  0.22321429  1.0
  Zr  Zr70  1  0.75000000  0.41666667  0.22321429  1.0
  Zr  Zr71  1  0.75000000  0.75000000  0.22321429  1.0
  Ni  Ni72  1  0.20833333  0.20833333  0.24107143  1.0
  Ni  Ni73  1  0.20833333  0.54166667  0.24107143  1.0
  Ni  Ni74  1  0.20833333  0.87500000  0.24107143  1.0
  Ni  Ni75  1  0.54166667  0.20833333  0.24107143  1.0
  Ni  Ni76  1  0.54166667  0.54166667  0.24107143  1.0
  Ni  Ni77  1  0.54166667  0.87500000  0.24107143  1.0
  Ni  Ni78  1  0.87500000  0.20833333  0.24107143  1.0
  Ni  Ni79  1  0.87500000  0.54166667  0.24107143  1.0
  Ni  Ni80  1  0.87500000  0.87500000  0.24107143  1.0
  Ni  Ni81  1  0.20833333  0.20833333  0.16964286  1.0
  Ni  Ni82  1  0.20833333  0.54166667  0.16964286  1.0
  Ni  Ni83  1  0.20833333  0.87500000  0.16964286  1.0
  Ni  Ni84  1  0.54166667  0.20833333  0.16964286  1.0
  Ni  Ni85  1  0.54166667  0.54166667  0.16964286  1.0
  Ni  Ni86  1  0.54166667  0.87500000  0.16964286  1.0
  Ni  Ni87  1  0.87500000  0.20833333  0.16964286  1.0
  Ni  Ni88  1  0.87500000  0.54166667  0.16964286  1.0
  Ni  Ni89  1  0.87500000  0.87500000  0.16964286  1.0
  Ni  Ni90  1  0.04166667  0.20833333  0.16964286  1.0
  Ni  Ni91  1  0.04166667  0.54166667  0.16964286  1.0
  Ni  Ni92  1  0.04166667  0.87500000  0.16964286  1.0
  Ni  Ni93  1  0.37500000  0.20833333  0.16964286  1.0
  Ni  Ni94  1  0.37500000  0.54166667  0.16964286  1.0
  Ni  Ni95  1  0.37500000  0.87500000  0.16964286  1.0
  Ni  Ni96  1  0.70833333  0.20833333  0.16964286  1.0
  Ni  Ni97  1  0.70833333  0.54166667  0.16964286  1.0
  Ni  Ni98  1  0.70833333  0.87500000  0.16964286  1.0
  Ni  Ni99  1  0.20833333  0.04166667  0.16964286  1.0
  Ni  Ni100  1  0.20833333  0.37500000  0.16964286  1.0
  Ni  Ni101  1  0.20833333  0.70833333  0.16964286  1.0
  Ni  Ni102  1  0.54166667  0.04166667  0.16964286  1.0
  Ni  Ni103  1  0.54166667  0.37500000  0.16964286  1.0
  Ni  Ni104  1  0.54166667  0.70833333  0.16964286  1.0
  Ni  Ni105  1  0.87500000  0.04166667  0.16964286  1.0
  Ni  Ni106  1  0.87500000  0.37500000  0.16964286  1.0
  Ni  Ni107  1  0.87500000  0.70833333  0.16964286  1.0
  Zr  Zr108  1  0.00000000  0.00000000  0.40178571  1.0
  Zr  Zr109  1  0.00000000  0.33333333  0.40178571  1.0
  Zr  Zr110  1  0.00000000  0.66666667  0.40178571  1.0
  Zr  Zr111  1  0.33333333  0.00000000  0.40178571  1.0
  Zr  Zr112  1  0.33333333  0.33333333  0.40178571  1.0
  Zr  Zr113  1  0.33333333  0.66666667  0.40178571  1.0
  Zr  Zr114  1  0.66666667  0.00000000  0.40178571  1.0
  Zr  Zr115  1  0.66666667  0.33333333  0.40178571  1.0
  Zr  Zr116  1  0.66666667  0.66666667  0.40178571  1.0
  Zr  Zr117  1  0.08333333  0.08333333  0.36607143  1.0
  Zr  Zr118  1  0.08333333  0.41666667  0.36607143  1.0
  Zr  Zr119  1  0.08333333  0.75000000  0.36607143  1.0
  Zr  Zr120  1  0.41666667  0.08333333  0.36607143  1.0
  Zr  Zr121  1  0.41666667  0.41666667  0.36607143  1.0
  Zr  Zr122  1  0.41666667  0.75000000  0.36607143  1.0
  Zr  Zr123  1  0.75000000  0.08333333  0.36607143  1.0
  Zr  Zr124  1  0.75000000  0.41666667  0.36607143  1.0
  Zr  Zr125  1  0.75000000  0.75000000  0.36607143  1.0
  Ni  Ni126  1  0.20833333  0.20833333  0.38392857  1.0
  Ni  Ni127  1  0.20833333  0.54166667  0.38392857  1.0
  Ni  Ni128  1  0.20833333  0.87500000  0.38392857  1.0
  Ni  Ni129  1  0.54166667  0.20833333  0.38392857  1.0
  Ni  Ni130  1  0.54166667  0.54166667  0.38392857  1.0
  Ni  Ni131  1  0.54166667  0.87500000  0.38392857  1.0
  Ni  Ni132  1  0.87500000  0.20833333  0.38392857  1.0
  Ni  Ni133  1  0.87500000  0.54166667  0.38392857  1.0
  Ni  Ni134  1  0.87500000  0.87500000  0.38392857  1.0
  Ni  Ni135  1  0.20833333  0.20833333  0.31250000  1.0
  Ni  Ni136  1  0.20833333  0.54166667  0.31250000  1.0
  Ni  Ni137  1  0.20833333  0.87500000  0.31250000  1.0
  Ni  Ni138  1  0.54166667  0.20833333  0.31250000  1.0
  Ni  Ni139  1  0.54166667  0.54166667  0.31250000  1.0
  Ni  Ni140  1  0.54166667  0.87500000  0.31250000  1.0
  Ni  Ni141  1  0.87500000  0.20833333  0.31250000  1.0
  Ni  Ni142  1  0.87500000  0.54166667  0.31250000  1.0
  Ni  Ni143  1  0.87500000  0.87500000  0.31250000  1.0
  Ni  Ni144  1  0.04166667  0.20833333  0.31250000  1.0
  Ni  Ni145  1  0.04166667  0.54166667  0.31250000  1.0
  Ni  Ni146  1  0.04166667  0.87500000  0.31250000  1.0
  Ni  Ni147  1  0.37500000  0.20833333  0.31250000  1.0
  Ni  Ni148  1  0.37500000  0.54166667  0.31250000  1.0
  Ni  Ni149  1  0.37500000  0.87500000  0.31250000  1.0
  Ni  Ni150  1  0.70833333  0.20833333  0.31250000  1.0
  Ni  Ni151  1  0.70833333  0.54166667  0.31250000  1.0
  Ni  Ni152  1  0.70833333  0.87500000  0.31250000  1.0
  Ni  Ni153  1  0.20833333  0.04166667  0.31250000  1.0
  Ni  Ni154  1  0.20833333  0.37500000  0.31250000  1.0
  Ni  Ni155  1  0.20833333  0.70833333  0.31250000  1.0
  Ni  Ni156  1  0.54166667  0.04166667  0.31250000  1.0
  Ni  Ni157  1  0.54166667  0.37500000  0.31250000  1.0
  Ni  Ni158  1  0.54166667  0.70833333  0.31250000  1.0
  Ni  Ni159  1  0.87500000  0.04166667  0.31250000  1.0
  Ni  Ni160  1  0.87500000  0.37500000  0.31250000  1.0
  Ni  Ni161  1  0.87500000  0.70833333  0.31250000  1.0
