# generated using pymatgen
data_NiBi
_symmetry_space_group_name_H-M   'P 1'
_cell_length_a   8.23272113
_cell_length_b   8.23272113
_cell_length_c   12.88582246
_cell_angle_alpha   61.54335411
_cell_angle_beta   118.45664589
_cell_angle_gamma   119.54305465
_symmetry_Int_Tables_number   1
_chemical_formula_structural   NiBi
_chemical_formula_sum   'Ni16 Bi16'
_cell_volume   633.83236280
_cell_formula_units_Z   16
loop_
 _symmetry_equiv_pos_site_id
 _symmetry_equiv_pos_as_xyz
  1  'x, y, z'
loop_
 _atom_site_type_symbol
 _atom_site_label
 _atom_site_symmetry_multiplicity
 _atom_site_fract_x
 _atom_site_fract_y
 _atom_site_fract_z
 _atom_site_occupancy
  Ni  Ni0  1  0.25147684  0.74852316  0.49353273  1
  Ni  Ni1  1  0.75649337  0.24350663  0.51864409  1
  Ni  Ni2  1  0.89499576  0.10500424  0.12253768  1
  Ni  Ni3  1  0.10505977  0.89494023  0.87624202  1
  Ni  Ni4  1  0.12192081  0.87807919  0.24876992  1
  Ni  Ni5  1  0.88357539  0.11642461  0.75646353  1
  Ni  Ni6  1  0.73538033  0.73789363  0.49759363  1
  Ni  Ni7  1  0.26210637  0.26461967  0.49759363  1
  Ni  Ni8  1  0.00000376  0.99999624  0.00081592  1
  Ni  Ni9  1  0.63042697  0.87826926  0.25161085  1
  Ni  Ni10  1  0.88280668  0.63452299  0.75125175  1
  Ni  Ni11  1  0.12173074  0.36957303  0.25161085  1
  Ni  Ni12  1  0.36547701  0.11719332  0.75125175  1
  Ni  Ni13  1  0.50066040  0.00081195  0.00018211  1
  Ni  Ni14  1  0.99918805  0.49933960  0.00018211  1
  Ni  Ni15  1  0.35492469  0.64507530  0.37865671  1
  Bi  Bi16  1  0.53394925  0.46605075  0.37189474  1
  Bi  Bi17  1  0.47904254  0.52095746  0.63036874  1
  Bi  Bi18  1  0.02277362  0.97722638  0.37878557  1
  Bi  Bi19  1  0.97903114  0.02096887  0.61960273  1
  Bi  Bi20  1  0.22945408  0.77054592  0.12423487  1
  Bi  Bi21  1  0.76819300  0.23180700  0.86945910  1
  Bi  Bi22  1  0.71279505  0.74281148  0.12170835  1
  Bi  Bi23  1  0.74098672  0.71642350  0.87444944  1
  Bi  Bi24  1  0.25718852  0.28720495  0.12170835  1
  Bi  Bi25  1  0.28357650  0.25901328  0.87444944  1
  Bi  Bi26  1  0.71294868  0.28705132  0.12248021  1
  Bi  Bi27  1  0.28626115  0.71373884  0.87408553  1
  Bi  Bi28  1  0.53224372  0.01237637  0.36923128  1
  Bi  Bi29  1  0.98767127  0.52766599  0.62638553  1
  Bi  Bi30  1  0.98762363  0.46775628  0.36923128  1
  Bi  Bi31  1  0.47233401  0.01232873  0.62638553  1
